clear
new circuit.synthetic_net basekv=157.6864406779661 pu=1.0 phases=3
edit Vsource.source bus1=bus_68.1.2.3

!---------------- LINES ----------------

new linecode.LCode_0 nphases=1 rmatrix=[0.864965] xmatrix=[1.242115] units=km
new line.line_0 bus1=bus_0.1 bus2=bus_1.1 linecode=LCode_0 length=1.0 units=km
new linecode.LCode_1 nphases=1 rmatrix=[0.792042] xmatrix=[1.408499] units=km
new line.line_1 bus1=bus_0.1 bus2=bus_2.1 linecode=LCode_1 length=1.0 units=km
new linecode.LCode_2 nphases=1 rmatrix=[0.394933] xmatrix=[1.282843] units=km
new line.line_2 bus1=bus_3.1 bus2=bus_4.1 linecode=LCode_2 length=1.0 units=km
new linecode.LCode_3 nphases=1 rmatrix=[0.803125] xmatrix=[1.244915] units=km
new line.line_3 bus1=bus_2.1 bus2=bus_4.1 linecode=LCode_3 length=1.0 units=km
new linecode.LCode_4 nphases=1 rmatrix=[0.672279] xmatrix=[1.393522] units=km
new line.line_4 bus1=bus_4.1 bus2=bus_5.1 linecode=LCode_4 length=1.0 units=km
new linecode.LCode_5 nphases=1 rmatrix=[0.553123] xmatrix=[1.487035] units=km
new line.line_5 bus1=bus_5.1 bus2=bus_6.1 linecode=LCode_5 length=1.0 units=km
new linecode.LCode_6 nphases=1 rmatrix=[0.840999] xmatrix=[1.242115] units=km
new line.line_6 bus1=bus_7.1 bus2=bus_8.1 linecode=LCode_6 length=1.0 units=km
new linecode.LCode_7 nphases=1 rmatrix=[0.863301] xmatrix=[1.242115] units=km
new line.line_7 bus1=bus_8.1 bus2=bus_9.1 linecode=LCode_7 length=1.0 units=km
new linecode.LCode_8 nphases=1 rmatrix=[0.837672] xmatrix=[1.460816] units=km
new line.line_8 bus1=bus_3.1 bus2=bus_10.1 linecode=LCode_8 length=1.0 units=km
new linecode.LCode_9 nphases=1 rmatrix=[1.096488] xmatrix=[1.242115] units=km
new line.line_9 bus1=bus_4.1 bus2=bus_10.1 linecode=LCode_9 length=1.0 units=km
new linecode.LCode_10 nphases=1 rmatrix=[0.534398] xmatrix=[1.242115] units=km
new line.line_10 bus1=bus_10.1 bus2=bus_11.1 linecode=LCode_10 length=1.0 units=km
new linecode.LCode_11 nphases=1 rmatrix=[1.216621] xmatrix=[1.242115] units=km
new line.line_11 bus1=bus_1.1 bus2=bus_11.1 linecode=LCode_11 length=1.0 units=km
new linecode.LCode_12 nphases=1 rmatrix=[0.938936] xmatrix=[1.242115] units=km
new line.line_12 bus1=bus_2.1 bus2=bus_11.1 linecode=LCode_12 length=1.0 units=km
new linecode.LCode_13 nphases=1 rmatrix=[0.912528] xmatrix=[1.299236] units=km
new line.line_13 bus1=bus_6.1 bus2=bus_11.1 linecode=LCode_13 length=1.0 units=km
new linecode.LCode_16 nphases=2 rmatrix=[0.660451 | 0.059160 0.660451] xmatrix=[1.300608 | 1.024695 1.300608] units=km
new line.line_16 bus1=bus_12.2.3 bus2=bus_14.2.3 linecode=LCode_16 length=1.0 units=km
new linecode.LCode_17 nphases=2 rmatrix=[0.790507 | 0.059160 0.790507] xmatrix=[1.403569 | 1.024695 1.403569] units=km
new line.line_17 bus1=bus_13.2.3 bus2=bus_14.2.3 linecode=LCode_17 length=1.0 units=km
new linecode.LCode_18 nphases=1 rmatrix=[0.552527] xmatrix=[1.242115] units=km
new line.line_18 bus1=bus_11.1 bus2=bus_15.1 linecode=LCode_18 length=1.0 units=km
new linecode.LCode_20 nphases=1 rmatrix=[0.594054] xmatrix=[1.294040] units=km
new line.line_20 bus1=bus_15.1 bus2=bus_16.1 linecode=LCode_20 length=1.0 units=km
new linecode.LCode_21 nphases=1 rmatrix=[0.806859] xmatrix=[1.296997] units=km
new line.line_21 bus1=bus_16.1 bus2=bus_17.1 linecode=LCode_21 length=1.0 units=km
new linecode.LCode_23 nphases=1 rmatrix=[1.012944] xmatrix=[1.242115] units=km
new line.line_23 bus1=bus_18.3 bus2=bus_19.3 linecode=LCode_23 length=1.0 units=km
new linecode.LCode_24 nphases=1 rmatrix=[0.901157] xmatrix=[1.268557] units=km
new line.line_24 bus1=bus_14.3 bus2=bus_18.3 linecode=LCode_24 length=1.0 units=km
new linecode.LCode_25 nphases=2 rmatrix=[0.489431 | 0.059160 0.489431] xmatrix=[1.260721 | 1.024695 1.260721] units=km
new line.line_25 bus1=bus_19.2.3 bus2=bus_20.2.3 linecode=LCode_25 length=1.0 units=km
new linecode.LCode_26 nphases=2 rmatrix=[1.480345 | 0.059160 1.480345] xmatrix=[1.242115 | 1.024695 1.242115] units=km
new line.line_26 bus1=bus_20.2.3 bus2=bus_21.2.3 linecode=LCode_26 length=1.0 units=km
new linecode.LCode_27 nphases=2 rmatrix=[0.837166 | 0.059160 0.837166] xmatrix=[1.266938 | 1.024695 1.266938] units=km
new line.line_27 bus1=bus_21.2.3 bus2=bus_22.2.3 linecode=LCode_27 length=1.0 units=km
new linecode.LCode_28 nphases=2 rmatrix=[0.281137 | 0.059160 0.281137] xmatrix=[1.535976 | 1.024695 1.535976] units=km
new line.line_28 bus1=bus_22.2.3 bus2=bus_23.2.3 linecode=LCode_28 length=1.0 units=km
new linecode.LCode_29 nphases=2 rmatrix=[0.612864 | 0.059160 0.612864] xmatrix=[1.242115 | 1.024695 1.242115] units=km
new line.line_29 bus1=bus_22.2.3 bus2=bus_24.2.3 linecode=LCode_29 length=1.0 units=km
new linecode.LCode_31 nphases=1 rmatrix=[0.689782] xmatrix=[1.408827] units=km
new line.line_31 bus1=bus_26.1 bus2=bus_27.1 linecode=LCode_31 length=1.0 units=km
new linecode.LCode_33 nphases=1 rmatrix=[0.790217] xmatrix=[1.440338] units=km
new line.line_33 bus1=bus_7.1 bus2=bus_29.1 linecode=LCode_33 length=1.0 units=km
new linecode.LCode_36 nphases=2 rmatrix=[0.844649 | 0.059160 0.844649] xmatrix=[1.242115 | 1.024695 1.242115] units=km
new line.line_36 bus1=bus_28.2.3 bus2=bus_30.2.3 linecode=LCode_36 length=1.0 units=km
new linecode.LCode_37 nphases=2 rmatrix=[0.732867 | 0.059160 0.732867] xmatrix=[1.321503 | 1.024695 1.321503] units=km
new line.line_37 bus1=bus_22.2.3 bus2=bus_31.2.3 linecode=LCode_37 length=1.0 units=km
new linecode.LCode_38 nphases=2 rmatrix=[0.862078 | 0.059160 0.862078] xmatrix=[1.480881 | 1.024695 1.480881] units=km
new line.line_38 bus1=bus_30.2.3 bus2=bus_31.2.3 linecode=LCode_38 length=1.0 units=km
new linecode.LCode_40 nphases=2 rmatrix=[0.534099 | 0.059160 0.534099] xmatrix=[1.242115 | 1.024695 1.242115] units=km
new line.line_40 bus1=bus_14.2.3 bus2=bus_32.2.3 linecode=LCode_40 length=1.0 units=km
new linecode.LCode_41 nphases=1 rmatrix=[1.106579] xmatrix=[1.332145] units=km
new line.line_41 bus1=bus_18.3 bus2=bus_33.3 linecode=LCode_41 length=1.0 units=km
new linecode.LCode_42 nphases=2 rmatrix=[0.547288 | 0.059160 0.547288] xmatrix=[1.242115 | 1.024695 1.242115] units=km
new line.line_42 bus1=bus_34.2.3 bus2=bus_35.2.3 linecode=LCode_42 length=1.0 units=km
new linecode.LCode_43 nphases=2 rmatrix=[0.872437 | 0.059160 0.872437] xmatrix=[1.242115 | 1.024695 1.242115] units=km
new line.line_43 bus1=bus_34.2.3 bus2=bus_36.2.3 linecode=LCode_43 length=1.0 units=km
new linecode.LCode_44 nphases=2 rmatrix=[0.399727 | 0.059160 0.399727] xmatrix=[1.319400 | 1.024695 1.319400] units=km
new line.line_44 bus1=bus_32.2.3 bus2=bus_36.2.3 linecode=LCode_44 length=1.0 units=km
new linecode.LCode_45 nphases=1 rmatrix=[1.421785] xmatrix=[1.242115] units=km
new line.line_45 bus1=bus_33.3 bus2=bus_35.3 linecode=LCode_45 length=1.0 units=km
new linecode.LCode_46 nphases=1 rmatrix=[1.516333] xmatrix=[1.286258] units=km
new line.line_46 bus1=bus_33.3 bus2=bus_36.3 linecode=LCode_46 length=1.0 units=km
new linecode.LCode_47 nphases=2 rmatrix=[1.125782 | 0.059160 1.125782] xmatrix=[1.397345 | 1.024695 1.397345] units=km
new line.line_47 bus1=bus_36.2.3 bus2=bus_38.2.3 linecode=LCode_47 length=1.0 units=km
new linecode.LCode_48 nphases=2 rmatrix=[0.685096 | 0.059160 0.685096] xmatrix=[1.242115 | 1.024695 1.242115] units=km
new line.line_48 bus1=bus_36.2.3 bus2=bus_39.2.3 linecode=LCode_48 length=1.0 units=km
new linecode.LCode_49 nphases=1 rmatrix=[1.035301] xmatrix=[1.427388] units=km
new line.line_49 bus1=bus_29.1 bus2=bus_37.1 linecode=LCode_49 length=1.0 units=km
new linecode.LCode_50 nphases=2 rmatrix=[0.645031 | 0.059160 0.645031] xmatrix=[1.242115 | 1.024695 1.242115] units=km
new line.line_50 bus1=bus_38.2.3 bus2=bus_39.2.3 linecode=LCode_50 length=1.0 units=km
new linecode.LCode_51 nphases=2 rmatrix=[0.667849 | 0.059160 0.667849] xmatrix=[1.434725 | 1.024695 1.434725] units=km
new line.line_51 bus1=bus_39.2.3 bus2=bus_40.2.3 linecode=LCode_51 length=1.0 units=km
new linecode.LCode_52 nphases=2 rmatrix=[0.798235 | 0.059160 0.798235] xmatrix=[1.264441 | 1.024695 1.264441] units=km
new line.line_52 bus1=bus_39.2.3 bus2=bus_41.2.3 linecode=LCode_52 length=1.0 units=km
new linecode.LCode_53 nphases=2 rmatrix=[0.926623 | 0.059160 0.926623] xmatrix=[1.669518 | 1.024695 1.669518] units=km
new line.line_53 bus1=bus_40.2.3 bus2=bus_41.2.3 linecode=LCode_53 length=1.0 units=km
new linecode.LCode_54 nphases=2 rmatrix=[0.303002 | 0.059160 0.303002] xmatrix=[1.349324 | 1.024695 1.349324] units=km
new line.line_54 bus1=bus_42.2.3 bus2=bus_43.2.3 linecode=LCode_54 length=1.0 units=km
new linecode.LCode_55 nphases=1 rmatrix=[0.810790] xmatrix=[1.520776] units=km
new line.line_55 bus1=bus_33.3 bus2=bus_42.3 linecode=LCode_55 length=1.0 units=km
new linecode.LCode_56 nphases=2 rmatrix=[0.459113 | 0.059160 0.459113] xmatrix=[1.242115 | 1.024695 1.242115] units=km
new line.line_56 bus1=bus_43.2.3 bus2=bus_44.2.3 linecode=LCode_56 length=1.0 units=km
new linecode.LCode_58 nphases=1 rmatrix=[0.889152] xmatrix=[1.242115] units=km
new line.line_58 bus1=bus_45.1 bus2=bus_46.1 linecode=LCode_58 length=1.0 units=km
new linecode.LCode_59 nphases=1 rmatrix=[0.823888] xmatrix=[1.433529] units=km
new line.line_59 bus1=bus_45.1 bus2=bus_47.1 linecode=LCode_59 length=1.0 units=km
new linecode.LCode_60 nphases=1 rmatrix=[0.821260] xmatrix=[1.242115] units=km
new line.line_60 bus1=bus_46.1 bus2=bus_48.1 linecode=LCode_60 length=1.0 units=km
new linecode.LCode_61 nphases=2 rmatrix=[0.947002 | 0.059160 0.947002] xmatrix=[1.242115 | 1.024695 1.242115] units=km
new line.line_61 bus1=bus_41.2.3 bus2=bus_48.2.3 linecode=LCode_61 length=1.0 units=km
new linecode.LCode_62 nphases=2 rmatrix=[0.754361 | 0.059160 0.754361] xmatrix=[1.242115 | 1.024695 1.242115] units=km
new line.line_62 bus1=bus_41.2.3 bus2=bus_48.2.3 linecode=LCode_62 length=1.0 units=km
new linecode.LCode_63 nphases=2 rmatrix=[0.741195 | 0.059160 0.741195] xmatrix=[1.242115 | 1.024695 1.242115] units=km
new line.line_63 bus1=bus_44.2.3 bus2=bus_48.2.3 linecode=LCode_63 length=1.0 units=km
new linecode.LCode_64 nphases=3 rmatrix=[0.293102 | 0.059160 0.293102 | 0.059160 0.059160 0.293102] xmatrix=[1.512978 | 1.024695 1.512978 | 0.940589 1.024695 1.512978] units=km
new line.line_64 bus1=bus_47.1.2.3 bus2=bus_48.1.2.3 linecode=LCode_64 length=1.0 units=km
new linecode.LCode_65 nphases=3 rmatrix=[0.302143 | 0.059160 0.302143 | 0.059160 0.059160 0.302143] xmatrix=[1.242115 | 1.024695 1.242115 | 0.940589 1.024695 1.242115] units=km
new line.line_65 bus1=bus_48.1.2.3 bus2=bus_49.1.2.3 linecode=LCode_65 length=1.0 units=km
new linecode.LCode_66 nphases=2 rmatrix=[0.598012 | 0.059160 0.598012] xmatrix=[1.242115 | 1.024695 1.242115] units=km
new line.line_66 bus1=bus_48.1.2 bus2=bus_50.1.2 linecode=LCode_66 length=1.0 units=km
new linecode.LCode_67 nphases=2 rmatrix=[0.219040 | 0.059160 0.219040] xmatrix=[1.341834 | 1.024695 1.341834] units=km
new line.line_67 bus1=bus_50.1.2 bus2=bus_51.1.2 linecode=LCode_67 length=1.0 units=km
new linecode.LCode_69 nphases=1 rmatrix=[0.763198] xmatrix=[1.352702] units=km
new line.line_69 bus1=bus_52.3 bus2=bus_53.3 linecode=LCode_69 length=1.0 units=km
new linecode.LCode_70 nphases=1 rmatrix=[0.923168] xmatrix=[1.455617] units=km
new line.line_70 bus1=bus_48.3 bus2=bus_53.3 linecode=LCode_70 length=1.0 units=km
new linecode.LCode_71 nphases=1 rmatrix=[0.852092] xmatrix=[1.517461] units=km
new line.line_71 bus1=bus_48.3 bus2=bus_53.3 linecode=LCode_71 length=1.0 units=km
new linecode.LCode_72 nphases=1 rmatrix=[0.691539] xmatrix=[1.495960] units=km
new line.line_72 bus1=bus_53.3 bus2=bus_54.3 linecode=LCode_72 length=1.0 units=km
new linecode.LCode_73 nphases=1 rmatrix=[0.238085] xmatrix=[1.242115] units=km
new line.line_73 bus1=bus_53.3 bus2=bus_55.3 linecode=LCode_73 length=1.0 units=km
new linecode.LCode_74 nphases=1 rmatrix=[0.219057] xmatrix=[1.242115] units=km
new line.line_74 bus1=bus_54.3 bus2=bus_55.3 linecode=LCode_74 length=1.0 units=km
new linecode.LCode_75 nphases=1 rmatrix=[0.402993] xmatrix=[1.242115] units=km
new line.line_75 bus1=bus_55.3 bus2=bus_56.3 linecode=LCode_75 length=1.0 units=km
new linecode.LCode_76 nphases=3 rmatrix=[0.342110 | 0.059160 0.342110 | 0.059160 0.059160 0.342110] xmatrix=[1.242115 | 1.024695 1.242115 | 0.940589 1.024695 1.242115] units=km
new line.line_76 bus1=bus_49.1.2.3 bus2=bus_56.1.2.3 linecode=LCode_76 length=1.0 units=km
new linecode.LCode_78 nphases=2 rmatrix=[0.757073 | 0.059160 0.757073] xmatrix=[1.242115 | 1.024695 1.242115] units=km
new line.line_78 bus1=bus_50.1.2 bus2=bus_57.1.2 linecode=LCode_78 length=1.0 units=km
new linecode.LCode_79 nphases=1 rmatrix=[0.192711] xmatrix=[1.242115] units=km
new line.line_79 bus1=bus_53.3 bus2=bus_58.3 linecode=LCode_79 length=1.0 units=km
new linecode.LCode_80 nphases=1 rmatrix=[0.960258] xmatrix=[1.545266] units=km
new line.line_80 bus1=bus_55.3 bus2=bus_58.3 linecode=LCode_80 length=1.0 units=km
new linecode.LCode_81 nphases=1 rmatrix=[1.944804] xmatrix=[1.439342] units=km
new line.line_81 bus1=bus_55.3 bus2=bus_58.3 linecode=LCode_81 length=1.0 units=km
new linecode.LCode_82 nphases=1 rmatrix=[0.306582] xmatrix=[1.242115] units=km
new line.line_82 bus1=bus_54.3 bus2=bus_58.3 linecode=LCode_82 length=1.0 units=km
new linecode.LCode_83 nphases=1 rmatrix=[0.342364] xmatrix=[1.242115] units=km
new line.line_83 bus1=bus_58.3 bus2=bus_59.3 linecode=LCode_83 length=1.0 units=km
new linecode.LCode_84 nphases=1 rmatrix=[0.295917] xmatrix=[1.518703] units=km
new line.line_84 bus1=bus_58.3 bus2=bus_60.3 linecode=LCode_84 length=1.0 units=km
new linecode.LCode_85 nphases=1 rmatrix=[0.663954] xmatrix=[1.242115] units=km
new line.line_85 bus1=bus_59.3 bus2=bus_60.3 linecode=LCode_85 length=1.0 units=km
new linecode.LCode_88 nphases=2 rmatrix=[0.550295 | 0.059160 0.550295] xmatrix=[1.242115 | 1.024695 1.242115] units=km
new line.line_88 bus1=bus_62.1.2 bus2=bus_63.1.2 linecode=LCode_88 length=1.0 units=km
new linecode.LCode_89 nphases=1 rmatrix=[0.259186] xmatrix=[1.242115] units=km
new line.line_89 bus1=bus_37.1 bus2=bus_64.1 linecode=LCode_89 length=1.0 units=km
new linecode.LCode_90 nphases=2 rmatrix=[1.027800 | 0.059160 1.027800] xmatrix=[1.242115 | 1.024695 1.242115] units=km
new line.line_90 bus1=bus_63.1.2 bus2=bus_64.1.2 linecode=LCode_90 length=1.0 units=km
new linecode.LCode_91 nphases=2 rmatrix=[0.738529 | 0.059160 0.738529] xmatrix=[1.376028 | 0.940589 1.376028] units=km
new line.line_91 bus1=bus_48.1.3 bus2=bus_65.1.3 linecode=LCode_91 length=1.0 units=km
new linecode.LCode_92 nphases=2 rmatrix=[1.029761 | 0.059160 1.029761] xmatrix=[1.384116 | 0.940589 1.384116] units=km
new line.line_92 bus1=bus_48.1.3 bus2=bus_65.1.3 linecode=LCode_92 length=1.0 units=km
new linecode.LCode_95 nphases=2 rmatrix=[0.788962 | 0.059160 0.788962] xmatrix=[1.282526 | 0.940589 1.282526] units=km
new line.line_95 bus1=bus_65.1.3 bus2=bus_66.1.3 linecode=LCode_95 length=1.0 units=km
new linecode.LCode_96 nphases=1 rmatrix=[0.796072] xmatrix=[1.245970] units=km
new line.line_96 bus1=bus_46.1 bus2=bus_68.1 linecode=LCode_96 length=1.0 units=km
new linecode.LCode_97 nphases=3 rmatrix=[0.256528 | 0.059160 0.256528 | 0.059160 0.059160 0.256528] xmatrix=[1.242115 | 1.024695 1.242115 | 0.940589 1.024695 1.242115] units=km
new line.line_97 bus1=bus_48.1.2.3 bus2=bus_68.1.2.3 linecode=LCode_97 length=1.0 units=km
new linecode.LCode_98 nphases=2 rmatrix=[0.267597 | 0.059160 0.267597] xmatrix=[1.446860 | 1.024695 1.446860] units=km
new line.line_98 bus1=bus_68.2.3 bus2=bus_69.2.3 linecode=LCode_98 length=1.0 units=km
new linecode.LCode_99 nphases=2 rmatrix=[0.589711 | 0.059160 0.589711] xmatrix=[1.249364 | 1.024695 1.249364] units=km
new line.line_99 bus1=bus_23.2.3 bus2=bus_69.2.3 linecode=LCode_99 length=1.0 units=km
new linecode.LCode_100 nphases=2 rmatrix=[0.726531 | 0.059160 0.726531] xmatrix=[1.242115 | 1.024695 1.242115] units=km
new line.line_100 bus1=bus_69.2.3 bus2=bus_70.2.3 linecode=LCode_100 length=1.0 units=km
new linecode.LCode_101 nphases=2 rmatrix=[0.562327 | 0.059160 0.562327] xmatrix=[1.377972 | 1.024695 1.377972] units=km
new line.line_101 bus1=bus_23.2.3 bus2=bus_71.2.3 linecode=LCode_101 length=1.0 units=km
new linecode.LCode_102 nphases=2 rmatrix=[1.382605 | 0.059160 1.382605] xmatrix=[1.430407 | 1.024695 1.430407] units=km
new line.line_102 bus1=bus_70.2.3 bus2=bus_71.2.3 linecode=LCode_102 length=1.0 units=km
new linecode.LCode_103 nphases=2 rmatrix=[0.260690 | 0.059160 0.260690] xmatrix=[1.242115 | 1.024695 1.242115] units=km
new line.line_103 bus1=bus_70.2.3 bus2=bus_72.2.3 linecode=LCode_103 length=1.0 units=km
new linecode.LCode_104 nphases=2 rmatrix=[0.787044 | 0.059160 0.787044] xmatrix=[1.286052 | 1.024695 1.286052] units=km
new line.line_104 bus1=bus_69.2.3 bus2=bus_73.2.3 linecode=LCode_104 length=1.0 units=km
new linecode.LCode_105 nphases=1 rmatrix=[0.681849] xmatrix=[1.274944] units=km
new line.line_105 bus1=bus_69.2 bus2=bus_74.2 linecode=LCode_105 length=1.0 units=km
new linecode.LCode_106 nphases=2 rmatrix=[0.295444 | 0.059160 0.295444] xmatrix=[1.242115 | 1.024695 1.242115] units=km
new line.line_106 bus1=bus_68.1.2 bus2=bus_74.1.2 linecode=LCode_106 length=1.0 units=km
new linecode.LCode_107 nphases=1 rmatrix=[0.230763] xmatrix=[1.698647] units=km
new line.line_107 bus1=bus_73.2 bus2=bus_74.2 linecode=LCode_107 length=1.0 units=km
new linecode.LCode_108 nphases=2 rmatrix=[0.890178 | 0.059160 0.890178] xmatrix=[1.293131 | 1.024695 1.293131] units=km
new line.line_108 bus1=bus_75.2.3 bus2=bus_76.2.3 linecode=LCode_108 length=1.0 units=km
new linecode.LCode_109 nphases=2 rmatrix=[0.250914 | 0.059160 0.250914] xmatrix=[1.244409 | 1.024695 1.244409] units=km
new line.line_109 bus1=bus_68.2.3 bus2=bus_76.2.3 linecode=LCode_109 length=1.0 units=km
new linecode.LCode_110 nphases=1 rmatrix=[0.259888] xmatrix=[1.242115] units=km
new line.line_110 bus1=bus_74.2 bus2=bus_76.2 linecode=LCode_110 length=1.0 units=km
new linecode.LCode_111 nphases=2 rmatrix=[0.187022 | 0.059160 0.187022] xmatrix=[1.302991 | 1.024695 1.302991] units=km
new line.line_111 bus1=bus_76.2.3 bus2=bus_77.2.3 linecode=LCode_111 length=1.0 units=km
new linecode.LCode_112 nphases=2 rmatrix=[0.981752 | 0.059160 0.981752] xmatrix=[1.371695 | 1.024695 1.371695] units=km
new line.line_112 bus1=bus_77.2.3 bus2=bus_78.2.3 linecode=LCode_112 length=1.0 units=km
new linecode.LCode_113 nphases=2 rmatrix=[0.662700 | 0.059160 0.662700] xmatrix=[1.242115 | 1.024695 1.242115] units=km
new line.line_113 bus1=bus_76.2.3 bus2=bus_79.2.3 linecode=LCode_113 length=1.0 units=km
new linecode.LCode_114 nphases=2 rmatrix=[0.757930 | 0.059160 0.757930] xmatrix=[1.251920 | 1.024695 1.251920] units=km
new line.line_114 bus1=bus_76.2.3 bus2=bus_79.2.3 linecode=LCode_114 length=1.0 units=km
new linecode.LCode_115 nphases=2 rmatrix=[0.576922 | 0.059160 0.576922] xmatrix=[1.490829 | 1.024695 1.490829] units=km
new line.line_115 bus1=bus_78.2.3 bus2=bus_79.2.3 linecode=LCode_115 length=1.0 units=km
new linecode.LCode_116 nphases=2 rmatrix=[0.408916 | 0.059160 0.408916] xmatrix=[1.463763 | 1.024695 1.463763] units=km
new line.line_116 bus1=bus_76.2.3 bus2=bus_81.2.3 linecode=LCode_116 length=1.0 units=km
new linecode.LCode_117 nphases=2 rmatrix=[0.345767 | 0.059160 0.345767] xmatrix=[1.354154 | 1.024695 1.354154] units=km
new line.line_117 bus1=bus_81.2.3 bus2=bus_82.2.3 linecode=LCode_117 length=1.0 units=km
new linecode.LCode_118 nphases=2 rmatrix=[0.275351 | 0.059160 0.275351] xmatrix=[1.377889 | 1.024695 1.377889] units=km
new line.line_118 bus1=bus_82.2.3 bus2=bus_83.2.3 linecode=LCode_118 length=1.0 units=km
new linecode.LCode_119 nphases=2 rmatrix=[1.027621 | 0.059160 1.027621] xmatrix=[1.414787 | 1.024695 1.414787] units=km
new line.line_119 bus1=bus_82.2.3 bus2=bus_84.2.3 linecode=LCode_119 length=1.0 units=km
new linecode.LCode_120 nphases=2 rmatrix=[0.982040 | 0.059160 0.982040] xmatrix=[1.242115 | 1.024695 1.242115] units=km
new line.line_120 bus1=bus_83.2.3 bus2=bus_84.2.3 linecode=LCode_120 length=1.0 units=km
new linecode.LCode_121 nphases=2 rmatrix=[0.786931 | 0.059160 0.786931] xmatrix=[1.242115 | 1.024695 1.242115] units=km
new line.line_121 bus1=bus_84.2.3 bus2=bus_85.2.3 linecode=LCode_121 length=1.0 units=km
new linecode.LCode_122 nphases=2 rmatrix=[0.828585 | 0.059160 0.828585] xmatrix=[1.326999 | 1.024695 1.326999] units=km
new line.line_122 bus1=bus_84.2.3 bus2=bus_87.2.3 linecode=LCode_122 length=1.0 units=km
new linecode.LCode_123 nphases=2 rmatrix=[1.187317 | 0.059160 1.187317] xmatrix=[1.268432 | 1.024695 1.268432] units=km
new line.line_123 bus1=bus_84.2.3 bus2=bus_88.2.3 linecode=LCode_123 length=1.0 units=km
new linecode.LCode_124 nphases=2 rmatrix=[0.862232 | 0.059160 0.862232] xmatrix=[1.482661 | 1.024695 1.482661] units=km
new line.line_124 bus1=bus_87.2.3 bus2=bus_88.2.3 linecode=LCode_124 length=1.0 units=km
new linecode.LCode_125 nphases=2 rmatrix=[0.802766 | 0.059160 0.802766] xmatrix=[1.475897 | 1.024695 1.475897] units=km
new line.line_125 bus1=bus_88.2.3 bus2=bus_89.2.3 linecode=LCode_125 length=1.0 units=km
new linecode.LCode_126 nphases=2 rmatrix=[0.668092 | 0.059160 0.668092] xmatrix=[1.511086 | 1.024695 1.511086] units=km
new line.line_126 bus1=bus_88.2.3 bus2=bus_89.2.3 linecode=LCode_126 length=1.0 units=km
new linecode.LCode_127 nphases=1 rmatrix=[0.636510] xmatrix=[1.242115] units=km
new line.line_127 bus1=bus_89.3 bus2=bus_90.3 linecode=LCode_127 length=1.0 units=km
new linecode.LCode_128 nphases=1 rmatrix=[0.739982] xmatrix=[1.417998] units=km
new line.line_128 bus1=bus_88.3 bus2=bus_91.3 linecode=LCode_128 length=1.0 units=km
new linecode.LCode_129 nphases=1 rmatrix=[1.095904] xmatrix=[1.242115] units=km
new line.line_129 bus1=bus_88.3 bus2=bus_91.3 linecode=LCode_129 length=1.0 units=km
new linecode.LCode_130 nphases=1 rmatrix=[1.131916] xmatrix=[1.556901] units=km
new line.line_130 bus1=bus_90.3 bus2=bus_91.3 linecode=LCode_130 length=1.0 units=km
new linecode.LCode_131 nphases=1 rmatrix=[0.770474] xmatrix=[1.431685] units=km
new line.line_131 bus1=bus_91.3 bus2=bus_92.3 linecode=LCode_131 length=1.0 units=km
new linecode.LCode_132 nphases=1 rmatrix=[1.216897] xmatrix=[1.616905] units=km
new line.line_132 bus1=bus_91.3 bus2=bus_93.3 linecode=LCode_132 length=1.0 units=km
new linecode.LCode_133 nphases=2 rmatrix=[0.840746 | 0.059160 0.840746] xmatrix=[1.250508 | 1.024695 1.250508] units=km
new line.line_133 bus1=bus_92.2.3 bus2=bus_93.2.3 linecode=LCode_133 length=1.0 units=km
new linecode.LCode_134 nphases=2 rmatrix=[0.806019 | 0.059160 0.806019] xmatrix=[1.326755 | 1.024695 1.326755] units=km
new line.line_134 bus1=bus_93.2.3 bus2=bus_94.2.3 linecode=LCode_134 length=1.0 units=km
new linecode.LCode_135 nphases=2 rmatrix=[0.839190 | 0.059160 0.839190] xmatrix=[1.242115 | 1.024695 1.242115] units=km
new line.line_135 bus1=bus_79.2.3 bus2=bus_95.2.3 linecode=LCode_135 length=1.0 units=km
new linecode.LCode_136 nphases=2 rmatrix=[0.633739 | 0.059160 0.633739] xmatrix=[1.242115 | 1.024695 1.242115] units=km
new line.line_136 bus1=bus_81.2.3 bus2=bus_95.2.3 linecode=LCode_136 length=1.0 units=km
new linecode.LCode_137 nphases=2 rmatrix=[0.241489 | 0.059160 0.241489] xmatrix=[1.242115 | 1.024695 1.242115] units=km
new line.line_137 bus1=bus_93.2.3 bus2=bus_95.2.3 linecode=LCode_137 length=1.0 units=km
new linecode.LCode_138 nphases=2 rmatrix=[0.205751 | 0.059160 0.205751] xmatrix=[1.323456 | 1.024695 1.323456] units=km
new line.line_138 bus1=bus_79.2.3 bus2=bus_96.2.3 linecode=LCode_138 length=1.0 units=km
new linecode.LCode_139 nphases=2 rmatrix=[0.657858 | 0.059160 0.657858] xmatrix=[1.242115 | 1.024695 1.242115] units=km
new line.line_139 bus1=bus_79.2.3 bus2=bus_97.2.3 linecode=LCode_139 length=1.0 units=km
new linecode.LCode_140 nphases=2 rmatrix=[0.976173 | 0.059160 0.976173] xmatrix=[1.379111 | 1.024695 1.379111] units=km
new line.line_140 bus1=bus_79.2.3 bus2=bus_98.2.3 linecode=LCode_140 length=1.0 units=km
new linecode.LCode_141 nphases=1 rmatrix=[1.184355] xmatrix=[1.242115] units=km
new line.line_141 bus1=bus_91.3 bus2=bus_99.3 linecode=LCode_141 length=1.0 units=km
new linecode.LCode_142 nphases=2 rmatrix=[1.110017 | 0.059160 1.110017] xmatrix=[1.242115 | 1.024695 1.242115] units=km
new line.line_142 bus1=bus_93.2.3 bus2=bus_99.2.3 linecode=LCode_142 length=1.0 units=km
new linecode.LCode_143 nphases=2 rmatrix=[0.793988 | 0.059160 0.793988] xmatrix=[1.379417 | 1.024695 1.379417] units=km
new line.line_143 bus1=bus_94.2.3 bus2=bus_95.2.3 linecode=LCode_143 length=1.0 units=km
new linecode.LCode_144 nphases=2 rmatrix=[0.757984 | 0.059160 0.757984] xmatrix=[1.242115 | 1.024695 1.242115] units=km
new line.line_144 bus1=bus_95.2.3 bus2=bus_96.2.3 linecode=LCode_144 length=1.0 units=km
new linecode.LCode_145 nphases=2 rmatrix=[1.035157 | 0.059160 1.035157] xmatrix=[1.334650 | 1.024695 1.334650] units=km
new line.line_145 bus1=bus_97.2.3 bus2=bus_99.2.3 linecode=LCode_145 length=1.0 units=km
new linecode.LCode_146 nphases=2 rmatrix=[0.602685 | 0.059160 0.602685] xmatrix=[1.242115 | 1.024695 1.242115] units=km
new line.line_146 bus1=bus_98.2.3 bus2=bus_99.2.3 linecode=LCode_146 length=1.0 units=km
new linecode.LCode_147 nphases=2 rmatrix=[0.785263 | 0.059160 0.785263] xmatrix=[1.292723 | 1.024695 1.292723] units=km
new line.line_147 bus1=bus_99.2.3 bus2=bus_100.2.3 linecode=LCode_147 length=1.0 units=km
new linecode.LCode_148 nphases=1 rmatrix=[0.744540] xmatrix=[1.613311] units=km
new line.line_148 bus1=bus_91.3 bus2=bus_101.3 linecode=LCode_148 length=1.0 units=km
new linecode.LCode_149 nphases=1 rmatrix=[1.213982] xmatrix=[1.338911] units=km
new line.line_149 bus1=bus_100.3 bus2=bus_101.3 linecode=LCode_149 length=1.0 units=km
new linecode.LCode_150 nphases=2 rmatrix=[0.558493 | 0.059160 0.558493] xmatrix=[1.242115 | 1.024695 1.242115] units=km
new line.line_150 bus1=bus_99.2.3 bus2=bus_102.2.3 linecode=LCode_150 length=1.0 units=km
new linecode.LCode_151 nphases=1 rmatrix=[0.618790] xmatrix=[1.411821] units=km
new line.line_151 bus1=bus_99.3 bus2=bus_103.3 linecode=LCode_151 length=1.0 units=km
new linecode.LCode_152 nphases=1 rmatrix=[0.517320] xmatrix=[1.570083] units=km
new line.line_152 bus1=bus_102.3 bus2=bus_103.3 linecode=LCode_152 length=1.0 units=km
new linecode.LCode_153 nphases=2 rmatrix=[0.563167 | 0.059160 0.563167] xmatrix=[1.242115 | 1.024695 1.242115] units=km
new line.line_153 bus1=bus_102.2.3 bus2=bus_104.2.3 linecode=LCode_153 length=1.0 units=km
new linecode.LCode_154 nphases=2 rmatrix=[0.709603 | 0.059160 0.709603] xmatrix=[1.293640 | 1.024695 1.293640] units=km
new line.line_154 bus1=bus_99.2.3 bus2=bus_105.2.3 linecode=LCode_154 length=1.0 units=km
new linecode.LCode_155 nphases=1 rmatrix=[0.411541] xmatrix=[1.242115] units=km
new line.line_155 bus1=bus_103.3 bus2=bus_104.3 linecode=LCode_155 length=1.0 units=km
new linecode.LCode_156 nphases=2 rmatrix=[0.520374 | 0.059160 0.520374] xmatrix=[1.340910 | 1.024695 1.340910] units=km
new line.line_156 bus1=bus_104.2.3 bus2=bus_105.2.3 linecode=LCode_156 length=1.0 units=km
new linecode.LCode_157 nphases=2 rmatrix=[0.352650 | 0.059160 0.352650] xmatrix=[1.253695 | 1.024695 1.253695] units=km
new line.line_157 bus1=bus_104.2.3 bus2=bus_106.2.3 linecode=LCode_157 length=1.0 units=km
new linecode.LCode_158 nphases=2 rmatrix=[0.564601 | 0.059160 0.564601] xmatrix=[1.554964 | 1.024695 1.554964] units=km
new line.line_158 bus1=bus_104.2.3 bus2=bus_107.2.3 linecode=LCode_158 length=1.0 units=km
new linecode.LCode_159 nphases=2 rmatrix=[0.791331 | 0.059160 0.791331] xmatrix=[1.438077 | 1.024695 1.438077] units=km
new line.line_159 bus1=bus_105.2.3 bus2=bus_106.2.3 linecode=LCode_159 length=1.0 units=km
new linecode.LCode_162 nphases=1 rmatrix=[0.904541] xmatrix=[1.415580] units=km
new line.line_162 bus1=bus_108.1 bus2=bus_109.1 linecode=LCode_162 length=1.0 units=km
new linecode.LCode_163 nphases=1 rmatrix=[0.747665] xmatrix=[1.242115] units=km
new line.line_163 bus1=bus_109.1 bus2=bus_110.1 linecode=LCode_163 length=1.0 units=km
new linecode.LCode_164 nphases=1 rmatrix=[0.809361] xmatrix=[1.570045] units=km
new line.line_164 bus1=bus_109.1 bus2=bus_111.1 linecode=LCode_164 length=1.0 units=km
new linecode.LCode_166 nphases=2 rmatrix=[0.845504 | 0.059160 0.845504] xmatrix=[1.242115 | 1.024695 1.242115] units=km
new line.line_166 bus1=bus_31.2.3 bus2=bus_112.2.3 linecode=LCode_166 length=1.0 units=km
new linecode.LCode_167 nphases=2 rmatrix=[0.509084 | 0.059160 0.509084] xmatrix=[1.242115 | 1.024695 1.242115] units=km
new line.line_167 bus1=bus_31.2.3 bus2=bus_113.2.3 linecode=LCode_167 length=1.0 units=km
new linecode.LCode_168 nphases=1 rmatrix=[0.724671] xmatrix=[1.266911] units=km
new line.line_168 bus1=bus_26.1 bus2=bus_114.1 linecode=LCode_168 length=1.0 units=km
new linecode.LCode_170 nphases=1 rmatrix=[0.718290] xmatrix=[1.242115] units=km
new line.line_170 bus1=bus_11.1 bus2=bus_116.1 linecode=LCode_170 length=1.0 units=km
new linecode.LCode_171 nphases=2 rmatrix=[0.640653 | 0.059160 0.640653] xmatrix=[1.309634 | 1.024695 1.309634] units=km
new line.line_171 bus1=bus_74.1.2 bus2=bus_117.1.2 linecode=LCode_171 length=1.0 units=km
new linecode.LCode_172 nphases=1 rmatrix=[0.815550] xmatrix=[1.242115] units=km
new line.line_172 bus1=bus_75.2 bus2=bus_117.2 linecode=LCode_172 length=1.0 units=km

!---------------- LOADS ----------------

new load.load_0_A bus1=bus_0.1 Phases=1 kv=157.6864406779661 kw=1552.340558565389 kvar=509.16770320944767 vminpu=0.85
new load.load_1_A bus1=bus_1.1 Phases=1 kv=157.6864406779661 kw=2681.380611717432 kvar=879.4928406433178 vminpu=0.85
new load.load_2_A bus1=bus_2.1 Phases=1 kv=157.6864406779661 kw=2074.943467176592 kvar=680.5814572339223 vminpu=0.85
new load.load_3_A bus1=bus_3.1 Phases=1 kv=157.6864406779661 kw=2173.97718878575 kvar=713.0645179217261 vminpu=0.85
new load.load_4_A bus1=bus_4.1 Phases=1 kv=157.6864406779661 kw=2432.8296168564243 kvar=797.9681143289072 vminpu=0.85
new load.load_5_A bus1=bus_5.1 Phases=1 kv=157.6864406779661 kw=2287.710976699081 kvar=750.3692003572986 vminpu=0.85