clear
new circuit.synthetic_net basekv=157.6864406779661 pu=1.0 phases=3
edit Vsource.source bus1=bus_68.1.2.3

!---------------- LINES ----------------

new linecode.LCode_0 nphases=1 rmatrix=[0.783957] xmatrix=[1.242115] units=km
new line.line_0 bus1=bus_0.1 bus2=bus_1.1 linecode=LCode_0 length=1.0 units=km
new linecode.LCode_1 nphases=1 rmatrix=[0.609757] xmatrix=[1.416202] units=km
new line.line_1 bus1=bus_0.1 bus2=bus_2.1 linecode=LCode_1 length=1.0 units=km
new linecode.LCode_2 nphases=1 rmatrix=[0.826975] xmatrix=[1.358681] units=km
new line.line_2 bus1=bus_3.1 bus2=bus_4.1 linecode=LCode_2 length=1.0 units=km
new linecode.LCode_3 nphases=1 rmatrix=[0.690332] xmatrix=[1.476224] units=km
new line.line_3 bus1=bus_2.1 bus2=bus_4.1 linecode=LCode_3 length=1.0 units=km
new linecode.LCode_4 nphases=1 rmatrix=[0.671900] xmatrix=[1.520760] units=km
new line.line_4 bus1=bus_4.1 bus2=bus_5.1 linecode=LCode_4 length=1.0 units=km
new linecode.LCode_5 nphases=1 rmatrix=[0.950840] xmatrix=[1.242115] units=km
new line.line_5 bus1=bus_5.1 bus2=bus_6.1 linecode=LCode_5 length=1.0 units=km
new linecode.LCode_6 nphases=1 rmatrix=[0.771203] xmatrix=[1.324486] units=km
new line.line_6 bus1=bus_7.1 bus2=bus_8.1 linecode=LCode_6 length=1.0 units=km
new linecode.LCode_7 nphases=1 rmatrix=[1.037241] xmatrix=[1.242115] units=km
new line.line_7 bus1=bus_8.1 bus2=bus_9.1 linecode=LCode_7 length=1.0 units=km
new linecode.LCode_8 nphases=1 rmatrix=[0.986552] xmatrix=[1.481301] units=km
new line.line_8 bus1=bus_3.1 bus2=bus_10.1 linecode=LCode_8 length=1.0 units=km
new linecode.LCode_9 nphases=1 rmatrix=[0.573406] xmatrix=[1.242115] units=km
new line.line_9 bus1=bus_4.1 bus2=bus_10.1 linecode=LCode_9 length=1.0 units=km
new linecode.LCode_10 nphases=1 rmatrix=[0.651624] xmatrix=[1.284831] units=km
new line.line_10 bus1=bus_10.1 bus2=bus_11.1 linecode=LCode_10 length=1.0 units=km
new linecode.LCode_11 nphases=1 rmatrix=[0.780767] xmatrix=[1.242115] units=km
new line.line_11 bus1=bus_1.1 bus2=bus_11.1 linecode=LCode_11 length=1.0 units=km
new linecode.LCode_12 nphases=1 rmatrix=[0.796041] xmatrix=[1.553845] units=km
new line.line_12 bus1=bus_2.1 bus2=bus_11.1 linecode=LCode_12 length=1.0 units=km
new linecode.LCode_13 nphases=1 rmatrix=[0.469403] xmatrix=[1.242115] units=km
new line.line_13 bus1=bus_6.1 bus2=bus_11.1 linecode=LCode_13 length=1.0 units=km
new linecode.LCode_14 nphases=1 rmatrix=[0.753534] xmatrix=[1.422767] units=km
new line.line_14 bus1=bus_10.1 bus2=bus_12.1 linecode=LCode_14 length=1.0 units=km
new linecode.LCode_15 nphases=1 rmatrix=[0.683358] xmatrix=[1.242115] units=km
new line.line_15 bus1=bus_11.1 bus2=bus_13.1 linecode=LCode_15 length=1.0 units=km
new linecode.LCode_16 nphases=1 rmatrix=[0.895706] xmatrix=[1.344610] units=km
new line.line_16 bus1=bus_12.1 bus2=bus_14.1 linecode=LCode_16 length=1.0 units=km
new linecode.LCode_17 nphases=1 rmatrix=[0.398147] xmatrix=[1.401879] units=km
new line.line_17 bus1=bus_13.1 bus2=bus_14.1 linecode=LCode_17 length=1.0 units=km
new linecode.LCode_18 nphases=1 rmatrix=[0.960100] xmatrix=[1.338982] units=km
new line.line_18 bus1=bus_11.1 bus2=bus_15.1 linecode=LCode_18 length=1.0 units=km
new linecode.LCode_19 nphases=1 rmatrix=[0.703061] xmatrix=[1.251864] units=km
new line.line_19 bus1=bus_14.1 bus2=bus_16.1 linecode=LCode_19 length=1.0 units=km
new linecode.LCode_20 nphases=1 rmatrix=[1.013940] xmatrix=[1.242115] units=km
new line.line_20 bus1=bus_15.1 bus2=bus_16.1 linecode=LCode_20 length=1.0 units=km
new linecode.LCode_21 nphases=1 rmatrix=[0.867970] xmatrix=[1.242115] units=km
new line.line_21 bus1=bus_16.1 bus2=bus_17.1 linecode=LCode_21 length=1.0 units=km
new linecode.LCode_22 nphases=1 rmatrix=[0.483401] xmatrix=[1.242115] units=km
new line.line_22 bus1=bus_17.1 bus2=bus_18.1 linecode=LCode_22 length=1.0 units=km
new linecode.LCode_24 nphases=1 rmatrix=[0.767077] xmatrix=[1.242115] units=km
new line.line_24 bus1=bus_14.1 bus2=bus_18.1 linecode=LCode_24 length=1.0 units=km
new linecode.LCode_25 nphases=1 rmatrix=[0.688405] xmatrix=[1.242115] units=km
new line.line_25 bus1=bus_19.2 bus2=bus_20.2 linecode=LCode_25 length=1.0 units=km
new linecode.LCode_26 nphases=1 rmatrix=[0.993234] xmatrix=[1.242115] units=km
new line.line_26 bus1=bus_20.2 bus2=bus_21.2 linecode=LCode_26 length=1.0 units=km
new linecode.LCode_27 nphases=1 rmatrix=[0.935890] xmatrix=[1.340598] units=km
new line.line_27 bus1=bus_21.2 bus2=bus_22.2 linecode=LCode_27 length=1.0 units=km
new linecode.LCode_28 nphases=1 rmatrix=[0.639400] xmatrix=[1.242115] units=km
new line.line_28 bus1=bus_22.2 bus2=bus_23.2 linecode=LCode_28 length=1.0 units=km
new linecode.LCode_29 nphases=1 rmatrix=[0.978583] xmatrix=[1.242115] units=km
new line.line_29 bus1=bus_22.2 bus2=bus_24.2 linecode=LCode_29 length=1.0 units=km
new linecode.LCode_30 nphases=1 rmatrix=[0.867757] xmatrix=[1.588018] units=km
new line.line_30 bus1=bus_24.2 bus2=bus_26.2 linecode=LCode_30 length=1.0 units=km
new linecode.LCode_31 nphases=1 rmatrix=[0.637036] xmatrix=[1.558330] units=km
new line.line_31 bus1=bus_26.2 bus2=bus_27.2 linecode=LCode_31 length=1.0 units=km
new linecode.LCode_32 nphases=1 rmatrix=[0.760080] xmatrix=[1.261938] units=km
new line.line_32 bus1=bus_27.2 bus2=bus_28.2 linecode=LCode_32 length=1.0 units=km
new linecode.LCode_33 nphases=1 rmatrix=[0.588422] xmatrix=[1.295378] units=km
new line.line_33 bus1=bus_7.1 bus2=bus_29.1 linecode=LCode_33 length=1.0 units=km
new linecode.LCode_36 nphases=1 rmatrix=[0.652158] xmatrix=[1.242115] units=km
new line.line_36 bus1=bus_28.2 bus2=bus_30.2 linecode=LCode_36 length=1.0 units=km
new linecode.LCode_37 nphases=1 rmatrix=[0.751504] xmatrix=[1.274046] units=km
new line.line_37 bus1=bus_22.2 bus2=bus_31.2 linecode=LCode_37 length=1.0 units=km
new linecode.LCode_38 nphases=1 rmatrix=[0.196116] xmatrix=[1.242115] units=km
new line.line_38 bus1=bus_30.2 bus2=bus_31.2 linecode=LCode_38 length=1.0 units=km
new linecode.LCode_39 nphases=1 rmatrix=[0.709792] xmatrix=[1.484016] units=km
new line.line_39 bus1=bus_26.2 bus2=bus_31.2 linecode=LCode_39 length=1.0 units=km
new linecode.LCode_40 nphases=1 rmatrix=[0.672829] xmatrix=[1.344972] units=km
new line.line_40 bus1=bus_14.1 bus2=bus_32.1 linecode=LCode_40 length=1.0 units=km
new linecode.LCode_41 nphases=1 rmatrix=[0.775674] xmatrix=[1.242115] units=km
new line.line_41 bus1=bus_18.1 bus2=bus_33.1 linecode=LCode_41 length=1.0 units=km
new linecode.LCode_42 nphases=1 rmatrix=[1.050089] xmatrix=[1.264183] units=km
new line.line_42 bus1=bus_34.1 bus2=bus_35.1 linecode=LCode_42 length=1.0 units=km
new linecode.LCode_43 nphases=1 rmatrix=[0.869828] xmatrix=[1.242115] units=km
new line.line_43 bus1=bus_34.1 bus2=bus_36.1 linecode=LCode_43 length=1.0 units=km
new linecode.LCode_44 nphases=1 rmatrix=[0.864857] xmatrix=[1.713715] units=km
new line.line_44 bus1=bus_32.1 bus2=bus_36.1 linecode=LCode_44 length=1.0 units=km
new linecode.LCode_45 nphases=1 rmatrix=[0.608827] xmatrix=[1.248463] units=km
new line.line_45 bus1=bus_33.1 bus2=bus_35.1 linecode=LCode_45 length=1.0 units=km
new linecode.LCode_46 nphases=1 rmatrix=[0.917320] xmatrix=[1.242115] units=km
new line.line_46 bus1=bus_33.1 bus2=bus_36.1 linecode=LCode_46 length=1.0 units=km
new linecode.LCode_47 nphases=1 rmatrix=[0.883228] xmatrix=[1.336797] units=km
new line.line_47 bus1=bus_36.1 bus2=bus_38.1 linecode=LCode_47 length=1.0 units=km
new linecode.LCode_48 nphases=1 rmatrix=[0.796773] xmatrix=[1.358023] units=km
new line.line_48 bus1=bus_36.1 bus2=bus_39.1 linecode=LCode_48 length=1.0 units=km
new linecode.LCode_50 nphases=2 rmatrix=[0.920139 | 0.059160 0.920139] xmatrix=[1.242115 | 1.024695 1.242115] units=km
new line.line_50 bus1=bus_38.1.2 bus2=bus_39.1.2 linecode=LCode_50 length=1.0 units=km
new linecode.LCode_51 nphases=2 rmatrix=[1.034272 | 0.059160 1.034272] xmatrix=[1.242115 | 1.024695 1.242115] units=km
new line.line_51 bus1=bus_39.1.2 bus2=bus_40.1.2 linecode=LCode_51 length=1.0 units=km
new linecode.LCode_52 nphases=2 rmatrix=[0.811636 | 0.059160 0.811636] xmatrix=[1.593402 | 1.024695 1.593402] units=km
new line.line_52 bus1=bus_39.1.2 bus2=bus_41.1.2 linecode=LCode_52 length=1.0 units=km
new linecode.LCode_53 nphases=2 rmatrix=[0.881536 | 0.059160 0.881536] xmatrix=[1.322923 | 1.024695 1.322923] units=km
new line.line_53 bus1=bus_40.1.2 bus2=bus_41.1.2 linecode=LCode_53 length=1.0 units=km
new linecode.LCode_54 nphases=1 rmatrix=[0.798942] xmatrix=[1.242115] units=km
new line.line_54 bus1=bus_42.1 bus2=bus_43.1 linecode=LCode_54 length=1.0 units=km
new linecode.LCode_55 nphases=1 rmatrix=[0.568422] xmatrix=[1.242115] units=km
new line.line_55 bus1=bus_33.1 bus2=bus_42.1 linecode=LCode_55 length=1.0 units=km
new linecode.LCode_56 nphases=1 rmatrix=[0.253443] xmatrix=[1.242115] units=km
new line.line_56 bus1=bus_43.1 bus2=bus_44.1 linecode=LCode_56 length=1.0 units=km
new linecode.LCode_57 nphases=1 rmatrix=[1.134620] xmatrix=[1.296118] units=km
new line.line_57 bus1=bus_44.1 bus2=bus_45.1 linecode=LCode_57 length=1.0 units=km
new linecode.LCode_58 nphases=2 rmatrix=[0.491820 | 0.059160 0.491820] xmatrix=[1.242115 | 0.940589 1.242115] units=km
new line.line_58 bus1=bus_45.1.3 bus2=bus_46.1.3 linecode=LCode_58 length=1.0 units=km
new linecode.LCode_59 nphases=1 rmatrix=[1.050170] xmatrix=[1.607440] units=km
new line.line_59 bus1=bus_45.1 bus2=bus_47.1 linecode=LCode_59 length=1.0 units=km
new linecode.LCode_60 nphases=1 rmatrix=[0.687070] xmatrix=[1.248825] units=km
new line.line_60 bus1=bus_46.1 bus2=bus_48.1 linecode=LCode_60 length=1.0 units=km
new linecode.LCode_61 nphases=2 rmatrix=[0.267178 | 0.059160 0.267178] xmatrix=[1.455076 | 1.024695 1.455076] units=km
new line.line_61 bus1=bus_41.1.2 bus2=bus_48.1.2 linecode=LCode_61 length=1.0 units=km
new linecode.LCode_62 nphases=2 rmatrix=[0.674972 | 0.059160 0.674972] xmatrix=[1.242115 | 1.024695 1.242115] units=km
new line.line_62 bus1=bus_41.1.2 bus2=bus_48.1.2 linecode=LCode_62 length=1.0 units=km
new linecode.LCode_63 nphases=1 rmatrix=[0.164876] xmatrix=[1.242115] units=km
new line.line_63 bus1=bus_44.1 bus2=bus_48.1 linecode=LCode_63 length=1.0 units=km
new linecode.LCode_64 nphases=2 rmatrix=[0.342608 | 0.059160 0.342608] xmatrix=[1.573349 | 1.024695 1.573349] units=km
new line.line_64 bus1=bus_47.1.2 bus2=bus_48.1.2 linecode=LCode_64 length=1.0 units=km
new linecode.LCode_65 nphases=2 rmatrix=[0.278019 | 0.059160 0.278019] xmatrix=[1.306036 | 1.024695 1.306036] units=km
new line.line_65 bus1=bus_48.1.2 bus2=bus_49.1.2 linecode=LCode_65 length=1.0 units=km
new linecode.LCode_66 nphases=1 rmatrix=[0.272958] xmatrix=[1.242115] units=km
new line.line_66 bus1=bus_48.1 bus2=bus_50.1 linecode=LCode_66 length=1.0 units=km
new linecode.LCode_67 nphases=1 rmatrix=[0.300065] xmatrix=[1.242115] units=km
new line.line_67 bus1=bus_50.1 bus2=bus_51.1 linecode=LCode_67 length=1.0 units=km
new linecode.LCode_68 nphases=1 rmatrix=[0.718509] xmatrix=[1.242115] units=km
new line.line_68 bus1=bus_51.1 bus2=bus_52.1 linecode=LCode_68 length=1.0 units=km
new linecode.LCode_69 nphases=2 rmatrix=[0.342974 | 0.059160 0.342974] xmatrix=[1.427115 | 1.024695 1.427115] units=km
new line.line_69 bus1=bus_52.1.2 bus2=bus_53.1.2 linecode=LCode_69 length=1.0 units=km
new linecode.LCode_70 nphases=2 rmatrix=[0.644788 | 0.059160 0.644788] xmatrix=[1.326057 | 1.024695 1.326057] units=km
new line.line_70 bus1=bus_48.1.2 bus2=bus_53.1.2 linecode=LCode_70 length=1.0 units=km
new linecode.LCode_71 nphases=2 rmatrix=[0.644852 | 0.059160 0.644852] xmatrix=[1.280784 | 1.024695 1.280784] units=km
new line.line_71 bus1=bus_48.1.2 bus2=bus_53.1.2 linecode=LCode_71 length=1.0 units=km
new linecode.LCode_72 nphases=1 rmatrix=[0.660981] xmatrix=[1.513966] units=km
new line.line_72 bus1=bus_53.1 bus2=bus_54.1 linecode=LCode_72 length=1.0 units=km
new linecode.LCode_73 nphases=2 rmatrix=[0.676163 | 0.059160 0.676163] xmatrix=[1.329913 | 1.024695 1.329913] units=km
new line.line_73 bus1=bus_53.1.2 bus2=bus_55.1.2 linecode=LCode_73 length=1.0 units=km
new linecode.LCode_74 nphases=1 rmatrix=[0.350845] xmatrix=[1.379268] units=km
new line.line_74 bus1=bus_54.1 bus2=bus_55.1 linecode=LCode_74 length=1.0 units=km
new linecode.LCode_75 nphases=2 rmatrix=[0.588658 | 0.059160 0.588658] xmatrix=[1.572966 | 1.024695 1.572966] units=km
new line.line_75 bus1=bus_55.1.2 bus2=bus_56.1.2 linecode=LCode_75 length=1.0 units=km
new linecode.LCode_76 nphases=2 rmatrix=[0.402500 | 0.059160 0.402500] xmatrix=[1.242115 | 1.024695 1.242115] units=km
new line.line_76 bus1=bus_49.1.2 bus2=bus_56.1.2 linecode=LCode_76 length=1.0 units=km
new linecode.LCode_77 nphases=1 rmatrix=[1.141791] xmatrix=[1.346053] units=km
new line.line_77 bus1=bus_55.1 bus2=bus_57.1 linecode=LCode_77 length=1.0 units=km
new linecode.LCode_78 nphases=1 rmatrix=[0.215666] xmatrix=[1.242115] units=km
new line.line_78 bus1=bus_50.1 bus2=bus_57.1 linecode=LCode_78 length=1.0 units=km
new linecode.LCode_79 nphases=2 rmatrix=[0.224207 | 0.059160 0.224207] xmatrix=[1.290691 | 1.024695 1.290691] units=km
new line.line_79 bus1=bus_53.1.2 bus2=bus_58.1.2 linecode=LCode_79 length=1.0 units=km
new linecode.LCode_80 nphases=2 rmatrix=[0.351229 | 0.059160 0.351229] xmatrix=[1.302831 | 1.024695 1.302831] units=km
new line.line_80 bus1=bus_55.1.2 bus2=bus_58.1.2 linecode=LCode_80 length=1.0 units=km
new linecode.LCode_81 nphases=2 rmatrix=[0.969581 | 0.059160 0.969581] xmatrix=[1.400873 | 1.024695 1.400873] units=km
new line.line_81 bus1=bus_55.1.2 bus2=bus_58.1.2 linecode=LCode_81 length=1.0 units=km
new linecode.LCode_82 nphases=1 rmatrix=[0.616274] xmatrix=[1.293554] units=km
new line.line_82 bus1=bus_54.1 bus2=bus_58.1 linecode=LCode_82 length=1.0 units=km
new linecode.LCode_83 nphases=1 rmatrix=[0.273663] xmatrix=[1.337221] units=km
new line.line_83 bus1=bus_58.2 bus2=bus_59.2 linecode=LCode_83 length=1.0 units=km
new linecode.LCode_84 nphases=2 rmatrix=[0.641039 | 0.059160 0.641039] xmatrix=[1.410808 | 1.024695 1.410808] units=km
new line.line_84 bus1=bus_58.1.2 bus2=bus_60.1.2 linecode=LCode_84 length=1.0 units=km
new linecode.LCode_85 nphases=1 rmatrix=[0.447158] xmatrix=[1.258791] units=km
new line.line_85 bus1=bus_59.2 bus2=bus_60.2 linecode=LCode_85 length=1.0 units=km
new linecode.LCode_86 nphases=1 rmatrix=[0.914744] xmatrix=[1.400240] units=km
new line.line_86 bus1=bus_59.2 bus2=bus_61.2 linecode=LCode_86 length=1.0 units=km
new linecode.LCode_87 nphases=2 rmatrix=[0.601528 | 0.059160 0.601528] xmatrix=[1.269517 | 1.024695 1.269517] units=km
new line.line_87 bus1=bus_60.1.2 bus2=bus_61.1.2 linecode=LCode_87 length=1.0 units=km
new linecode.LCode_88 nphases=1 rmatrix=[0.386531] xmatrix=[1.391094] units=km
new line.line_88 bus1=bus_62.1 bus2=bus_63.1 linecode=LCode_88 length=1.0 units=km
new linecode.LCode_89 nphases=2 rmatrix=[0.640228 | 0.059160 0.640228] xmatrix=[1.351599 | 1.024695 1.351599] units=km
new line.line_89 bus1=bus_37.2.3 bus2=bus_64.2.3 linecode=LCode_89 length=1.0 units=km
new linecode.LCode_91 nphases=2 rmatrix=[0.706381 | 0.059160 0.706381] xmatrix=[1.268108 | 1.024695 1.268108] units=km
new line.line_91 bus1=bus_48.1.2 bus2=bus_65.1.2 linecode=LCode_91 length=1.0 units=km
new linecode.LCode_92 nphases=2 rmatrix=[0.991700 | 0.059160 0.991700] xmatrix=[1.334633 | 1.024695 1.334633] units=km
new line.line_92 bus1=bus_48.1.2 bus2=bus_65.1.2 linecode=LCode_92 length=1.0 units=km
new linecode.LCode_93 nphases=2 rmatrix=[0.496019 | 0.059160 0.496019] xmatrix=[1.242115 | 1.024695 1.242115] units=km
new line.line_93 bus1=bus_61.1.2 bus2=bus_65.1.2 linecode=LCode_93 length=1.0 units=km
new linecode.LCode_94 nphases=2 rmatrix=[0.566060 | 0.059160 0.566060] xmatrix=[1.257987 | 1.024695 1.257987] units=km
new line.line_94 bus1=bus_61.1.2 bus2=bus_66.1.2 linecode=LCode_94 length=1.0 units=km
new linecode.LCode_95 nphases=2 rmatrix=[0.612597 | 0.059160 0.612597] xmatrix=[1.242115 | 1.024695 1.242115] units=km
new line.line_95 bus1=bus_65.1.2 bus2=bus_66.1.2 linecode=LCode_95 length=1.0 units=km
new linecode.LCode_96 nphases=2 rmatrix=[1.111248 | 0.059160 1.111248] xmatrix=[1.242115 | 0.940589 1.242115] units=km
new line.line_96 bus1=bus_46.1.3 bus2=bus_68.1.3 linecode=LCode_96 length=1.0 units=km
new linecode.LCode_97 nphases=2 rmatrix=[0.580764 | 0.059160 0.580764] xmatrix=[1.465877 | 1.024695 1.465877] units=km
new line.line_97 bus1=bus_48.1.2 bus2=bus_68.1.2 linecode=LCode_97 length=1.0 units=km
new linecode.LCode_98 nphases=2 rmatrix=[0.264859 | 0.059160 0.264859] xmatrix=[1.310037 | 0.940589 1.310037] units=km
new line.line_98 bus1=bus_68.1.3 bus2=bus_69.1.3 linecode=LCode_98 length=1.0 units=km
new linecode.LCode_101 nphases=1 rmatrix=[0.206188] xmatrix=[1.242115] units=km
new line.line_101 bus1=bus_23.2 bus2=bus_71.2 linecode=LCode_101 length=1.0 units=km
new linecode.LCode_102 nphases=1 rmatrix=[1.371594] xmatrix=[1.242115] units=km
new line.line_102 bus1=bus_70.2 bus2=bus_71.2 linecode=LCode_102 length=1.0 units=km
new linecode.LCode_103 nphases=1 rmatrix=[1.407188] xmatrix=[1.242115] units=km
new line.line_103 bus1=bus_70.2 bus2=bus_72.2 linecode=LCode_103 length=1.0 units=km
new linecode.LCode_104 nphases=2 rmatrix=[0.214750 | 0.059160 0.214750] xmatrix=[1.242115 | 0.940589 1.242115] units=km
new line.line_104 bus1=bus_69.1.3 bus2=bus_73.1.3 linecode=LCode_104 length=1.0 units=km
new linecode.LCode_105 nphases=2 rmatrix=[0.849430 | 0.059160 0.849430] xmatrix=[1.242115 | 0.940589 1.242115] units=km
new line.line_105 bus1=bus_69.1.3 bus2=bus_74.1.3 linecode=LCode_105 length=1.0 units=km
new linecode.LCode_106 nphases=2 rmatrix=[0.519300 | 0.059160 0.519300] xmatrix=[1.242115 | 0.940589 1.242115] units=km
new line.line_106 bus1=bus_68.1.3 bus2=bus_74.1.3 linecode=LCode_106 length=1.0 units=km
new linecode.LCode_107 nphases=2 rmatrix=[0.491870 | 0.059160 0.491870] xmatrix=[1.291798 | 0.940589 1.291798] units=km
new line.line_107 bus1=bus_73.1.3 bus2=bus_74.1.3 linecode=LCode_107 length=1.0 units=km
new linecode.LCode_108 nphases=3 rmatrix=[0.207443 | 0.059160 0.207443 | 0.059160 0.059160 0.207443] xmatrix=[1.242115 | 1.024695 1.242115 | 0.940589 1.024695 1.242115] units=km
new line.line_108 bus1=bus_75.1.2.3 bus2=bus_76.1.2.3 linecode=LCode_108 length=1.0 units=km
new linecode.LCode_109 nphases=3 rmatrix=[1.251808 | 0.059160 1.251808 | 0.059160 0.059160 1.251808] xmatrix=[1.242115 | 1.024695 1.242115 | 0.940589 1.024695 1.242115] units=km
new line.line_109 bus1=bus_68.1.2.3 bus2=bus_76.1.2.3 linecode=LCode_109 length=1.0 units=km
new linecode.LCode_110 nphases=2 rmatrix=[0.197102 | 0.059160 0.197102] xmatrix=[1.282642 | 0.940589 1.282642] units=km
new line.line_110 bus1=bus_74.1.3 bus2=bus_76.1.3 linecode=LCode_110 length=1.0 units=km
new linecode.LCode_111 nphases=3 rmatrix=[0.140005 | 0.059160 0.140005 | 0.059160 0.059160 0.140005] xmatrix=[1.369872 | 1.024695 1.369872 | 0.940589 1.024695 1.369872] units=km
new line.line_111 bus1=bus_76.1.2.3 bus2=bus_77.1.2.3 linecode=LCode_111 length=1.0 units=km
new linecode.LCode_112 nphases=3 rmatrix=[0.746732 | 0.059160 0.746732 | 0.059160 0.059160 0.746732] xmatrix=[1.254623 | 1.024695 1.254623 | 0.940589 1.024695 1.254623] units=km
new line.line_112 bus1=bus_77.1.2.3 bus2=bus_78.1.2.3 linecode=LCode_112 length=1.0 units=km
new linecode.LCode_113 nphases=2 rmatrix=[0.621541 | 0.059160 0.621541] xmatrix=[1.359408 | 1.024695 1.359408] units=km
new line.line_113 bus1=bus_76.2.3 bus2=bus_79.2.3 linecode=LCode_113 length=1.0 units=km
new linecode.LCode_114 nphases=2 rmatrix=[0.178066 | 0.059160 0.178066] xmatrix=[1.259386 | 1.024695 1.259386] units=km
new line.line_114 bus1=bus_76.2.3 bus2=bus_79.2.3 linecode=LCode_114 length=1.0 units=km
new linecode.LCode_115 nphases=2 rmatrix=[0.741909 | 0.059160 0.741909] xmatrix=[1.242115 | 1.024695 1.242115] units=km
new line.line_115 bus1=bus_78.2.3 bus2=bus_79.2.3 linecode=LCode_115 length=1.0 units=km
new linecode.LCode_116 nphases=2 rmatrix=[0.606219 | 0.059160 0.606219] xmatrix=[1.256879 | 1.024695 1.256879] units=km
new line.line_116 bus1=bus_76.1.2 bus2=bus_81.1.2 linecode=LCode_116 length=1.0 units=km
new linecode.LCode_117 nphases=2 rmatrix=[0.264896 | 0.059160 0.264896] xmatrix=[1.242115 | 1.024695 1.242115] units=km
new line.line_117 bus1=bus_81.1.2 bus2=bus_82.1.2 linecode=LCode_117 length=1.0 units=km
new linecode.LCode_118 nphases=2 rmatrix=[0.858068 | 0.059160 0.858068] xmatrix=[1.242115 | 1.024695 1.242115] units=km
new line.line_118 bus1=bus_82.1.2 bus2=bus_83.1.2 linecode=LCode_118 length=1.0 units=km
new linecode.LCode_119 nphases=2 rmatrix=[0.821592 | 0.059160 0.821592] xmatrix=[1.242115 | 1.024695 1.242115] units=km
new line.line_119 bus1=bus_82.1.2 bus2=bus_84.1.2 linecode=LCode_119 length=1.0 units=km
new linecode.LCode_120 nphases=2 rmatrix=[0.593438 | 0.059160 0.593438] xmatrix=[1.388952 | 1.024695 1.388952] units=km
new line.line_120 bus1=bus_83.1.2 bus2=bus_84.1.2 linecode=LCode_120 length=1.0 units=km
new linecode.LCode_121 nphases=2 rmatrix=[0.583357 | 0.059160 0.583357] xmatrix=[1.242115 | 1.024695 1.242115] units=km
new line.line_121 bus1=bus_84.1.2 bus2=bus_85.1.2 linecode=LCode_121 length=1.0 units=km
new linecode.LCode_122 nphases=2 rmatrix=[0.816039 | 0.059160 0.816039] xmatrix=[1.268469 | 1.024695 1.268469] units=km
new line.line_122 bus1=bus_84.1.2 bus2=bus_87.1.2 linecode=LCode_122 length=1.0 units=km
new linecode.LCode_123 nphases=2 rmatrix=[0.489661 | 0.059160 0.489661] xmatrix=[1.318845 | 1.024695 1.318845] units=km
new line.line_123 bus1=bus_84.1.2 bus2=bus_88.1.2 linecode=LCode_123 length=1.0 units=km
new linecode.LCode_124 nphases=2 rmatrix=[0.903890 | 0.059160 0.903890] xmatrix=[1.268004 | 1.024695 1.268004] units=km
new line.line_124 bus1=bus_87.1.2 bus2=bus_88.1.2 linecode=LCode_124 length=1.0 units=km
new linecode.LCode_125 nphases=1 rmatrix=[0.886661] xmatrix=[1.242115] units=km
new line.line_125 bus1=bus_88.1 bus2=bus_89.1 linecode=LCode_125 length=1.0 units=km
new linecode.LCode_126 nphases=1 rmatrix=[0.692375] xmatrix=[1.429776] units=km
new line.line_126 bus1=bus_88.1 bus2=bus_89.1 linecode=LCode_126 length=1.0 units=km
new linecode.LCode_130 nphases=1 rmatrix=[0.625702] xmatrix=[1.273977] units=km
new line.line_130 bus1=bus_90.3 bus2=bus_91.3 linecode=LCode_130 length=1.0 units=km
new linecode.LCode_131 nphases=1 rmatrix=[0.480970] xmatrix=[1.242115] units=km
new line.line_131 bus1=bus_91.3 bus2=bus_92.3 linecode=LCode_131 length=1.0 units=km
new linecode.LCode_132 nphases=1 rmatrix=[0.723159] xmatrix=[1.269896] units=km
new line.line_132 bus1=bus_91.3 bus2=bus_93.3 linecode=LCode_132 length=1.0 units=km
new linecode.LCode_133 nphases=1 rmatrix=[0.911164] xmatrix=[1.242115] units=km
new line.line_133 bus1=bus_92.3 bus2=bus_93.3 linecode=LCode_133 length=1.0 units=km
new linecode.LCode_134 nphases=1 rmatrix=[0.454794] xmatrix=[1.242115] units=km
new line.line_134 bus1=bus_93.3 bus2=bus_94.3 linecode=LCode_134 length=1.0 units=km
new linecode.LCode_135 nphases=1 rmatrix=[0.247127] xmatrix=[1.663866] units=km
new line.line_135 bus1=bus_79.3 bus2=bus_95.3 linecode=LCode_135 length=1.0 units=km
new linecode.LCode_137 nphases=1 rmatrix=[1.053320] xmatrix=[1.278451] units=km
new line.line_137 bus1=bus_93.3 bus2=bus_95.3 linecode=LCode_137 length=1.0 units=km
new linecode.LCode_138 nphases=2 rmatrix=[0.688136 | 0.059160 0.688136] xmatrix=[1.242115 | 1.024695 1.242115] units=km
new line.line_138 bus1=bus_79.2.3 bus2=bus_96.2.3 linecode=LCode_138 length=1.0 units=km
new linecode.LCode_139 nphases=2 rmatrix=[0.757938 | 0.059160 0.757938] xmatrix=[1.473703 | 1.024695 1.473703] units=km
new line.line_139 bus1=bus_79.2.3 bus2=bus_97.2.3 linecode=LCode_139 length=1.0 units=km
new linecode.LCode_140 nphases=2 rmatrix=[0.397537 | 0.059160 0.397537] xmatrix=[1.351654 | 1.024695 1.351654] units=km
new line.line_140 bus1=bus_79.2.3 bus2=bus_98.2.3 linecode=LCode_140 length=1.0 units=km
new linecode.LCode_141 nphases=1 rmatrix=[0.978200] xmatrix=[1.242115] units=km
new line.line_141 bus1=bus_91.3 bus2=bus_99.3 linecode=LCode_141 length=1.0 units=km
new linecode.LCode_142 nphases=1 rmatrix=[0.602122] xmatrix=[1.242115] units=km
new line.line_142 bus1=bus_93.3 bus2=bus_99.3 linecode=LCode_142 length=1.0 units=km
new linecode.LCode_143 nphases=1 rmatrix=[0.408950] xmatrix=[1.242115] units=km
new line.line_143 bus1=bus_94.3 bus2=bus_95.3 linecode=LCode_143 length=1.0 units=km
new linecode.LCode_144 nphases=1 rmatrix=[0.820424] xmatrix=[1.456260] units=km
new line.line_144 bus1=bus_95.3 bus2=bus_96.3 linecode=LCode_144 length=1.0 units=km
new linecode.LCode_145 nphases=2 rmatrix=[0.243182 | 0.059160 0.243182] xmatrix=[1.242115 | 1.024695 1.242115] units=km
new line.line_145 bus1=bus_97.2.3 bus2=bus_99.2.3 linecode=LCode_145 length=1.0 units=km
new linecode.LCode_146 nphases=2 rmatrix=[0.500680 | 0.059160 0.500680] xmatrix=[1.362723 | 1.024695 1.362723] units=km
new line.line_146 bus1=bus_98.2.3 bus2=bus_99.2.3 linecode=LCode_146 length=1.0 units=km
new linecode.LCode_147 nphases=2 rmatrix=[0.412991 | 0.059160 0.412991] xmatrix=[1.242115 | 1.024695 1.242115] units=km
new line.line_147 bus1=bus_99.2.3 bus2=bus_100.2.3 linecode=LCode_147 length=1.0 units=km
new linecode.LCode_148 nphases=1 rmatrix=[0.684254] xmatrix=[1.279482] units=km
new line.line_148 bus1=bus_91.3 bus2=bus_101.3 linecode=LCode_148 length=1.0 units=km
new linecode.LCode_149 nphases=1 rmatrix=[0.534119] xmatrix=[1.299611] units=km
new line.line_149 bus1=bus_100.3 bus2=bus_101.3 linecode=LCode_149 length=1.0 units=km
new linecode.LCode_152 nphases=1 rmatrix=[0.752041] xmatrix=[1.247947] units=km
new line.line_152 bus1=bus_102.1 bus2=bus_103.1 linecode=LCode_152 length=1.0 units=km
new linecode.LCode_153 nphases=1 rmatrix=[0.537966] xmatrix=[1.507911] units=km
new line.line_153 bus1=bus_102.1 bus2=bus_104.1 linecode=LCode_153 length=1.0 units=km
new linecode.LCode_154 nphases=2 rmatrix=[0.725879 | 0.059160 0.725879] xmatrix=[1.242115 | 1.024695 1.242115] units=km
new line.line_154 bus1=bus_99.2.3 bus2=bus_105.2.3 linecode=LCode_154 length=1.0 units=km
new linecode.LCode_155 nphases=1 rmatrix=[0.705193] xmatrix=[1.242115] units=km
new line.line_155 bus1=bus_103.1 bus2=bus_104.1 linecode=LCode_155 length=1.0 units=km
new linecode.LCode_158 nphases=1 rmatrix=[0.677260] xmatrix=[1.242115] units=km
new line.line_158 bus1=bus_104.1 bus2=bus_107.1 linecode=LCode_158 length=1.0 units=km
new linecode.LCode_159 nphases=2 rmatrix=[0.535599 | 0.059160 0.535599] xmatrix=[1.488162 | 1.024695 1.488162] units=km
new line.line_159 bus1=bus_105.2.3 bus2=bus_106.2.3 linecode=LCode_159 length=1.0 units=km
new linecode.LCode_160 nphases=1 rmatrix=[0.838263] xmatrix=[1.273714] units=km
new line.line_160 bus1=bus_107.1 bus2=bus_108.1 linecode=LCode_160 length=1.0 units=km
new linecode.LCode_161 nphases=1 rmatrix=[0.209287] xmatrix=[1.445598] units=km
new line.line_161 bus1=bus_102.1 bus2=bus_109.1 linecode=LCode_161 length=1.0 units=km
new linecode.LCode_162 nphases=1 rmatrix=[1.031516] xmatrix=[1.290325] units=km
new line.line_162 bus1=bus_108.1 bus2=bus_109.1 linecode=LCode_162 length=1.0 units=km
new linecode.LCode_163 nphases=1 rmatrix=[1.120778] xmatrix=[1.242115] units=km
new line.line_163 bus1=bus_109.1 bus2=bus_110.1 linecode=LCode_163 length=1.0 units=km
new linecode.LCode_164 nphases=1 rmatrix=[0.795454] xmatrix=[1.291207] units=km
new line.line_164 bus1=bus_109.1 bus2=bus_111.1 linecode=LCode_164 length=1.0 units=km
new linecode.LCode_166 nphases=1 rmatrix=[0.703542] xmatrix=[1.341476] units=km
new line.line_166 bus1=bus_31.2 bus2=bus_112.2 linecode=LCode_166 length=1.0 units=km
new linecode.LCode_167 nphases=1 rmatrix=[0.751879] xmatrix=[1.325606] units=km
new line.line_167 bus1=bus_31.2 bus2=bus_113.2 linecode=LCode_167 length=1.0 units=km
new linecode.LCode_168 nphases=1 rmatrix=[0.661704] xmatrix=[1.281336] units=km
new line.line_168 bus1=bus_26.2 bus2=bus_114.2 linecode=LCode_168 length=1.0 units=km
new linecode.LCode_169 nphases=1 rmatrix=[1.305453] xmatrix=[1.270159] units=km
new line.line_169 bus1=bus_113.2 bus2=bus_114.2 linecode=LCode_169 length=1.0 units=km
new linecode.LCode_170 nphases=1 rmatrix=[0.533695] xmatrix=[1.356649] units=km
new line.line_170 bus1=bus_11.1 bus2=bus_116.1 linecode=LCode_170 length=1.0 units=km
new linecode.LCode_171 nphases=2 rmatrix=[0.712578 | 0.059160 0.712578] xmatrix=[1.242115 | 0.940589 1.242115] units=km
new line.line_171 bus1=bus_74.1.3 bus2=bus_117.1.3 linecode=LCode_171 length=1.0 units=km
new linecode.LCode_172 nphases=2 rmatrix=[0.687895 | 0.059160 0.687895] xmatrix=[1.389489 | 0.940589 1.389489] units=km
new line.line_172 bus1=bus_75.1.3 bus2=bus_117.1.3 linecode=LCode_172 length=1.0 units=km

!---------------- LOADS ----------------

new load.load_0_A bus1=bus_0.1 Phases=1 kv=157.6864406779661 kw=1829.771037312448 kvar=600.164900238483 vminpu=0.85
new load.load_1_A bus1=bus_1.1 Phases=1 kv=157.6864406779661 kw=2607.2092543558224 kvar=855.1646354287097 vminpu=0.85
new load.load_2_A bus1=bus_2.1 Phases=1 kv=157.6864406779661 kw=1879.8939150300305 kvar=616.60520412985 vminpu=0.85
new load.load_3_A bus1=bus_3.1 Phases=1 kv=157.6864406779661 kw=2335.960490272756 kvar=766.195040809464 vminpu=0.85
new load.load_4_A bus1=bus_4.1 Phases=1 kv=157.6864406779661 kw=1272.18825477959 kvar=417.2777475677055 vminpu=0.85
new load.load_5_A bus1=bus_5.1 Phases=1 kv=157.6864406779661 kw=2509.019637255122 kvar=822.95844101968 vminpu=0.85
new load.load_6_A bus1=bus_6.1 Phases=1 kv=157.6864406779661 kw=2419.859568879045 kvar=793.7139385923268 vminpu=0.85
new load.load_7_A bus1=bus_7.1 Phases=1 kv=157.6864406779661 kw=2292.77532231642 kvar=752.0303057197858 vminpu=0.85
new load.load_8_A bus1=bus_8.1 Phases=1 kv=157.6864406779661 kw=1424.3003754148976 kvar=467.17052313608644 vminpu=0.85
new load.load_9_A bus1=bus_9.1 Phases=1 kv=157.6864406779661 kw=1596.057869566284 kvar=523.5069812177411 vminpu=0.85
new load.load_10_A bus1=bus_10.1 Phases=1 kv=157.6864406779661 kw=1893.9219020508945 kvar=621.2063838726934 vminpu=0.85