clear
new circuit.synthetic_net basekv=157.6864406779661 pu=1.0 phases=3
edit Vsource.source bus1=bus_68.1.2.3

!---------------- LINES ----------------

new linecode.LCode_0 nphases=1 rmatrix=[1.298988] xmatrix=[1.263565] units=km
new line.line_0 bus1=bus_0.1 bus2=bus_1.1 linecode=LCode_0 length=1.0 units=km
new linecode.LCode_1 nphases=1 rmatrix=[1.023930] xmatrix=[1.242115] units=km
new line.line_1 bus1=bus_0.1 bus2=bus_2.1 linecode=LCode_1 length=1.0 units=km
new linecode.LCode_2 nphases=1 rmatrix=[0.690254] xmatrix=[1.252397] units=km
new line.line_2 bus1=bus_3.1 bus2=bus_4.1 linecode=LCode_2 length=1.0 units=km
new linecode.LCode_3 nphases=1 rmatrix=[0.895690] xmatrix=[1.242115] units=km
new line.line_3 bus1=bus_2.1 bus2=bus_4.1 linecode=LCode_3 length=1.0 units=km
new linecode.LCode_4 nphases=1 rmatrix=[0.514742] xmatrix=[1.276130] units=km
new line.line_4 bus1=bus_4.1 bus2=bus_5.1 linecode=LCode_4 length=1.0 units=km
new linecode.LCode_5 nphases=1 rmatrix=[0.739435] xmatrix=[1.242115] units=km
new line.line_5 bus1=bus_5.1 bus2=bus_6.1 linecode=LCode_5 length=1.0 units=km
new linecode.LCode_6 nphases=1 rmatrix=[1.004230] xmatrix=[1.351208] units=km
new line.line_6 bus1=bus_7.1 bus2=bus_8.1 linecode=LCode_6 length=1.0 units=km
new linecode.LCode_7 nphases=1 rmatrix=[1.069366] xmatrix=[1.534090] units=km
new line.line_7 bus1=bus_8.1 bus2=bus_9.1 linecode=LCode_7 length=1.0 units=km
new linecode.LCode_8 nphases=1 rmatrix=[1.214489] xmatrix=[1.300110] units=km
new line.line_8 bus1=bus_3.1 bus2=bus_10.1 linecode=LCode_8 length=1.0 units=km
new linecode.LCode_9 nphases=1 rmatrix=[0.668047] xmatrix=[1.242115] units=km
new line.line_9 bus1=bus_4.1 bus2=bus_10.1 linecode=LCode_9 length=1.0 units=km
new linecode.LCode_10 nphases=1 rmatrix=[1.247484] xmatrix=[1.847674] units=km
new line.line_10 bus1=bus_10.1 bus2=bus_11.1 linecode=LCode_10 length=1.0 units=km
new linecode.LCode_11 nphases=1 rmatrix=[1.047117] xmatrix=[1.453008] units=km
new line.line_11 bus1=bus_1.1 bus2=bus_11.1 linecode=LCode_11 length=1.0 units=km
new linecode.LCode_12 nphases=1 rmatrix=[0.566580] xmatrix=[1.358735] units=km
new line.line_12 bus1=bus_2.1 bus2=bus_11.1 linecode=LCode_12 length=1.0 units=km
new linecode.LCode_13 nphases=1 rmatrix=[0.534270] xmatrix=[1.242115] units=km
new line.line_13 bus1=bus_6.1 bus2=bus_11.1 linecode=LCode_13 length=1.0 units=km
new linecode.LCode_16 nphases=1 rmatrix=[0.684394] xmatrix=[1.271279] units=km
new line.line_16 bus1=bus_12.3 bus2=bus_14.3 linecode=LCode_16 length=1.0 units=km
new linecode.LCode_17 nphases=1 rmatrix=[0.996296] xmatrix=[1.243530] units=km
new line.line_17 bus1=bus_13.3 bus2=bus_14.3 linecode=LCode_17 length=1.0 units=km
new linecode.LCode_18 nphases=1 rmatrix=[1.015487] xmatrix=[1.361061] units=km
new line.line_18 bus1=bus_11.1 bus2=bus_15.1 linecode=LCode_18 length=1.0 units=km
new linecode.LCode_20 nphases=1 rmatrix=[0.677548] xmatrix=[1.464263] units=km
new line.line_20 bus1=bus_15.1 bus2=bus_16.1 linecode=LCode_20 length=1.0 units=km
new linecode.LCode_21 nphases=1 rmatrix=[1.120747] xmatrix=[1.247458] units=km
new line.line_21 bus1=bus_16.1 bus2=bus_17.1 linecode=LCode_21 length=1.0 units=km
new linecode.LCode_23 nphases=1 rmatrix=[0.772483] xmatrix=[1.242115] units=km
new line.line_23 bus1=bus_18.3 bus2=bus_19.3 linecode=LCode_23 length=1.0 units=km
new linecode.LCode_24 nphases=1 rmatrix=[0.509142] xmatrix=[1.242115] units=km
new line.line_24 bus1=bus_14.3 bus2=bus_18.3 linecode=LCode_24 length=1.0 units=km
new linecode.LCode_25 nphases=2 rmatrix=[1.145383 | 0.059160 1.145383] xmatrix=[1.353733 | 1.024695 1.353733] units=km
new line.line_25 bus1=bus_19.2.3 bus2=bus_20.2.3 linecode=LCode_25 length=1.0 units=km
new linecode.LCode_26 nphases=2 rmatrix=[1.291669 | 0.059160 1.291669] xmatrix=[1.317053 | 1.024695 1.317053] units=km
new line.line_26 bus1=bus_20.2.3 bus2=bus_21.2.3 linecode=LCode_26 length=1.0 units=km
new linecode.LCode_27 nphases=2 rmatrix=[0.751076 | 0.059160 0.751076] xmatrix=[1.258095 | 1.024695 1.258095] units=km
new line.line_27 bus1=bus_21.2.3 bus2=bus_22.2.3 linecode=LCode_27 length=1.0 units=km
new linecode.LCode_28 nphases=2 rmatrix=[0.854412 | 0.059160 0.854412] xmatrix=[1.242115 | 1.024695 1.242115] units=km
new line.line_28 bus1=bus_22.2.3 bus2=bus_23.2.3 linecode=LCode_28 length=1.0 units=km
new linecode.LCode_29 nphases=2 rmatrix=[0.968861 | 0.059160 0.968861] xmatrix=[1.242115 | 1.024695 1.242115] units=km
new line.line_29 bus1=bus_22.2.3 bus2=bus_24.2.3 linecode=LCode_29 length=1.0 units=km
new linecode.LCode_30 nphases=2 rmatrix=[1.343664 | 0.059160 1.343664] xmatrix=[1.245151 | 1.024695 1.245151] units=km
new line.line_30 bus1=bus_24.2.3 bus2=bus_26.2.3 linecode=LCode_30 length=1.0 units=km
new linecode.LCode_31 nphases=2 rmatrix=[0.693565 | 0.059160 0.693565] xmatrix=[1.297221 | 1.024695 1.297221] units=km
new line.line_31 bus1=bus_26.2.3 bus2=bus_27.2.3 linecode=LCode_31 length=1.0 units=km
new linecode.LCode_32 nphases=1 rmatrix=[0.737967] xmatrix=[1.742229] units=km
new line.line_32 bus1=bus_27.3 bus2=bus_28.3 linecode=LCode_32 length=1.0 units=km
new linecode.LCode_33 nphases=1 rmatrix=[1.006348] xmatrix=[1.518991] units=km
new line.line_33 bus1=bus_7.1 bus2=bus_29.1 linecode=LCode_33 length=1.0 units=km
new linecode.LCode_36 nphases=1 rmatrix=[0.543108] xmatrix=[1.242115] units=km
new line.line_36 bus1=bus_28.3 bus2=bus_30.3 linecode=LCode_36 length=1.0 units=km
new linecode.LCode_37 nphases=2 rmatrix=[1.005437 | 0.059160 1.005437] xmatrix=[1.276620 | 1.024695 1.276620] units=km
new line.line_37 bus1=bus_22.2.3 bus2=bus_31.2.3 linecode=LCode_37 length=1.0 units=km
new linecode.LCode_38 nphases=1 rmatrix=[1.023070] xmatrix=[1.242115] units=km
new line.line_38 bus1=bus_30.3 bus2=bus_31.3 linecode=LCode_38 length=1.0 units=km
new linecode.LCode_39 nphases=2 rmatrix=[0.640609 | 0.059160 0.640609] xmatrix=[1.366392 | 1.024695 1.366392] units=km
new line.line_39 bus1=bus_26.2.3 bus2=bus_31.2.3 linecode=LCode_39 length=1.0 units=km
new linecode.LCode_40 nphases=1 rmatrix=[0.859709] xmatrix=[1.242115] units=km
new line.line_40 bus1=bus_14.3 bus2=bus_32.3 linecode=LCode_40 length=1.0 units=km
new linecode.LCode_41 nphases=1 rmatrix=[0.742103] xmatrix=[1.242115] units=km
new line.line_41 bus1=bus_18.3 bus2=bus_33.3 linecode=LCode_41 length=1.0 units=km
new linecode.LCode_42 nphases=1 rmatrix=[1.379768] xmatrix=[1.550948] units=km
new line.line_42 bus1=bus_34.3 bus2=bus_35.3 linecode=LCode_42 length=1.0 units=km
new linecode.LCode_43 nphases=1 rmatrix=[0.574358] xmatrix=[1.242115] units=km
new line.line_43 bus1=bus_34.3 bus2=bus_36.3 linecode=LCode_43 length=1.0 units=km
new linecode.LCode_44 nphases=1 rmatrix=[0.731899] xmatrix=[1.242115] units=km
new line.line_44 bus1=bus_32.3 bus2=bus_36.3 linecode=LCode_44 length=1.0 units=km
new linecode.LCode_45 nphases=1 rmatrix=[0.281785] xmatrix=[1.242115] units=km
new line.line_45 bus1=bus_33.3 bus2=bus_35.3 linecode=LCode_45 length=1.0 units=km
new linecode.LCode_46 nphases=1 rmatrix=[0.721665] xmatrix=[1.303645] units=km
new line.line_46 bus1=bus_33.3 bus2=bus_36.3 linecode=LCode_46 length=1.0 units=km
new linecode.LCode_47 nphases=1 rmatrix=[0.462484] xmatrix=[1.242115] units=km
new line.line_47 bus1=bus_36.3 bus2=bus_38.3 linecode=LCode_47 length=1.0 units=km
new linecode.LCode_48 nphases=1 rmatrix=[0.753813] xmatrix=[1.242115] units=km
new line.line_48 bus1=bus_36.3 bus2=bus_39.3 linecode=LCode_48 length=1.0 units=km
new linecode.LCode_49 nphases=1 rmatrix=[0.399015] xmatrix=[1.436055] units=km
new line.line_49 bus1=bus_29.1 bus2=bus_37.1 linecode=LCode_49 length=1.0 units=km
new linecode.LCode_50 nphases=2 rmatrix=[0.914546 | 0.059160 0.914546] xmatrix=[1.242115 | 0.940589 1.242115] units=km
new line.line_50 bus1=bus_38.1.3 bus2=bus_39.1.3 linecode=LCode_50 length=1.0 units=km
new linecode.LCode_51 nphases=2 rmatrix=[0.232839 | 0.059160 0.232839] xmatrix=[1.242115 | 0.940589 1.242115] units=km
new line.line_51 bus1=bus_39.1.3 bus2=bus_40.1.3 linecode=LCode_51 length=1.0 units=km
new linecode.LCode_52 nphases=2 rmatrix=[1.288160 | 0.059160 1.288160] xmatrix=[1.270467 | 0.940589 1.270467] units=km
new line.line_52 bus1=bus_39.1.3 bus2=bus_41.1.3 linecode=LCode_52 length=1.0 units=km
new linecode.LCode_53 nphases=2 rmatrix=[0.838661 | 0.059160 0.838661] xmatrix=[1.276754 | 0.940589 1.276754] units=km
new line.line_53 bus1=bus_40.1.3 bus2=bus_41.1.3 linecode=LCode_53 length=1.0 units=km
new linecode.LCode_54 nphases=2 rmatrix=[0.882781 | 0.059160 0.882781] xmatrix=[1.333139 | 0.940589 1.333139] units=km
new line.line_54 bus1=bus_42.1.3 bus2=bus_43.1.3 linecode=LCode_54 length=1.0 units=km
new linecode.LCode_55 nphases=1 rmatrix=[0.421391] xmatrix=[1.242115] units=km
new line.line_55 bus1=bus_33.3 bus2=bus_42.3 linecode=LCode_55 length=1.0 units=km
new linecode.LCode_56 nphases=2 rmatrix=[0.648112 | 0.059160 0.648112] xmatrix=[1.242115 | 0.940589 1.242115] units=km
new line.line_56 bus1=bus_43.1.3 bus2=bus_44.1.3 linecode=LCode_56 length=1.0 units=km
new linecode.LCode_58 nphases=1 rmatrix=[0.194390] xmatrix=[1.407628] units=km
new line.line_58 bus1=bus_45.2 bus2=bus_46.2 linecode=LCode_58 length=1.0 units=km
new linecode.LCode_61 nphases=2 rmatrix=[0.359286 | 0.059160 0.359286] xmatrix=[1.242115 | 0.940589 1.242115] units=km
new line.line_61 bus1=bus_41.1.3 bus2=bus_48.1.3 linecode=LCode_61 length=1.0 units=km
new linecode.LCode_62 nphases=2 rmatrix=[1.430068 | 0.059160 1.430068] xmatrix=[1.242115 | 0.940589 1.242115] units=km
new line.line_62 bus1=bus_41.1.3 bus2=bus_48.1.3 linecode=LCode_62 length=1.0 units=km
new linecode.LCode_63 nphases=2 rmatrix=[0.282268 | 0.059160 0.282268] xmatrix=[1.242115 | 0.940589 1.242115] units=km
new line.line_63 bus1=bus_44.1.3 bus2=bus_48.1.3 linecode=LCode_63 length=1.0 units=km
new linecode.LCode_64 nphases=2 rmatrix=[0.204080 | 0.059160 0.204080] xmatrix=[1.794224 | 0.940589 1.794224] units=km
new line.line_64 bus1=bus_47.1.3 bus2=bus_48.1.3 linecode=LCode_64 length=1.0 units=km
new linecode.LCode_65 nphases=2 rmatrix=[0.619537 | 0.059160 0.619537] xmatrix=[1.409323 | 0.940589 1.409323] units=km
new line.line_65 bus1=bus_48.1.3 bus2=bus_49.1.3 linecode=LCode_65 length=1.0 units=km
new linecode.LCode_66 nphases=2 rmatrix=[0.945894 | 0.059160 0.945894] xmatrix=[1.430139 | 0.940589 1.430139] units=km
new line.line_66 bus1=bus_48.1.3 bus2=bus_50.1.3 linecode=LCode_66 length=1.0 units=km
new linecode.LCode_67 nphases=2 rmatrix=[0.704104 | 0.059160 0.704104] xmatrix=[1.289316 | 0.940589 1.289316] units=km
new line.line_67 bus1=bus_50.1.3 bus2=bus_51.1.3 linecode=LCode_67 length=1.0 units=km
new linecode.LCode_68 nphases=2 rmatrix=[0.309502 | 0.059160 0.309502] xmatrix=[1.356607 | 0.940589 1.356607] units=km
new line.line_68 bus1=bus_51.1.3 bus2=bus_52.1.3 linecode=LCode_68 length=1.0 units=km
new linecode.LCode_69 nphases=2 rmatrix=[0.997517 | 0.059160 0.997517] xmatrix=[1.242115 | 0.940589 1.242115] units=km
new line.line_69 bus1=bus_52.1.3 bus2=bus_53.1.3 linecode=LCode_69 length=1.0 units=km
new linecode.LCode_70 nphases=2 rmatrix=[0.247739 | 0.059160 0.247739] xmatrix=[1.385318 | 0.940589 1.385318] units=km
new line.line_70 bus1=bus_48.1.3 bus2=bus_53.1.3 linecode=LCode_70 length=1.0 units=km
new linecode.LCode_71 nphases=2 rmatrix=[0.813374 | 0.059160 0.813374] xmatrix=[1.361645 | 0.940589 1.361645] units=km
new line.line_71 bus1=bus_48.1.3 bus2=bus_53.1.3 linecode=LCode_71 length=1.0 units=km
new linecode.LCode_72 nphases=1 rmatrix=[0.945451] xmatrix=[1.303139] units=km
new line.line_72 bus1=bus_53.3 bus2=bus_54.3 linecode=LCode_72 length=1.0 units=km
new linecode.LCode_76 nphases=2 rmatrix=[0.221992 | 0.059160 0.221992] xmatrix=[1.242115 | 0.940589 1.242115] units=km
new line.line_76 bus1=bus_49.1.3 bus2=bus_56.1.3 linecode=LCode_76 length=1.0 units=km
new linecode.LCode_78 nphases=2 rmatrix=[0.597962 | 0.059160 0.597962] xmatrix=[1.386672 | 0.940589 1.386672] units=km
new line.line_78 bus1=bus_50.1.3 bus2=bus_57.1.3 linecode=LCode_78 length=1.0 units=km
new linecode.LCode_79 nphases=1 rmatrix=[0.233961] xmatrix=[1.510734] units=km
new line.line_79 bus1=bus_53.3 bus2=bus_58.3 linecode=LCode_79 length=1.0 units=km
new linecode.LCode_82 nphases=1 rmatrix=[1.038934] xmatrix=[1.341999] units=km
new line.line_82 bus1=bus_54.3 bus2=bus_58.3 linecode=LCode_82 length=1.0 units=km
new linecode.LCode_83 nphases=1 rmatrix=[0.700977] xmatrix=[1.273517] units=km
new line.line_83 bus1=bus_58.3 bus2=bus_59.3 linecode=LCode_83 length=1.0 units=km
new linecode.LCode_84 nphases=1 rmatrix=[0.274620] xmatrix=[1.242115] units=km
new line.line_84 bus1=bus_58.3 bus2=bus_60.3 linecode=LCode_84 length=1.0 units=km
new linecode.LCode_85 nphases=1 rmatrix=[0.615229] xmatrix=[1.285158] units=km
new line.line_85 bus1=bus_59.3 bus2=bus_60.3 linecode=LCode_85 length=1.0 units=km
new linecode.LCode_86 nphases=1 rmatrix=[0.193373] xmatrix=[1.262383] units=km
new line.line_86 bus1=bus_59.3 bus2=bus_61.3 linecode=LCode_86 length=1.0 units=km
new linecode.LCode_87 nphases=1 rmatrix=[1.090235] xmatrix=[1.242115] units=km
new line.line_87 bus1=bus_60.3 bus2=bus_61.3 linecode=LCode_87 length=1.0 units=km
new linecode.LCode_88 nphases=1 rmatrix=[0.864148] xmatrix=[1.242115] units=km
new line.line_88 bus1=bus_62.1 bus2=bus_63.1 linecode=LCode_88 length=1.0 units=km
new linecode.LCode_89 nphases=1 rmatrix=[0.525142] xmatrix=[1.316084] units=km
new line.line_89 bus1=bus_37.1 bus2=bus_64.1 linecode=LCode_89 length=1.0 units=km
new linecode.LCode_90 nphases=1 rmatrix=[1.131495] xmatrix=[1.242115] units=km
new line.line_90 bus1=bus_63.1 bus2=bus_64.1 linecode=LCode_90 length=1.0 units=km
new linecode.LCode_91 nphases=2 rmatrix=[0.741484 | 0.059160 0.741484] xmatrix=[1.278388 | 0.940589 1.278388] units=km
new line.line_91 bus1=bus_48.1.3 bus2=bus_65.1.3 linecode=LCode_91 length=1.0 units=km
new linecode.LCode_92 nphases=2 rmatrix=[0.599899 | 0.059160 0.599899] xmatrix=[1.351752 | 0.940589 1.351752] units=km
new line.line_92 bus1=bus_48.1.3 bus2=bus_65.1.3 linecode=LCode_92 length=1.0 units=km
new linecode.LCode_93 nphases=2 rmatrix=[0.815617 | 0.059160 0.815617] xmatrix=[1.633615 | 0.940589 1.633615] units=km
new line.line_93 bus1=bus_61.1.3 bus2=bus_65.1.3 linecode=LCode_93 length=1.0 units=km
new linecode.LCode_94 nphases=2 rmatrix=[0.328798 | 0.059160 0.328798] xmatrix=[1.242115 | 0.940589 1.242115] units=km
new line.line_94 bus1=bus_61.1.3 bus2=bus_66.1.3 linecode=LCode_94 length=1.0 units=km
new linecode.LCode_95 nphases=2 rmatrix=[0.857942 | 0.059160 0.857942] xmatrix=[1.432308 | 0.940589 1.432308] units=km
new line.line_95 bus1=bus_65.1.3 bus2=bus_66.1.3 linecode=LCode_95 length=1.0 units=km
new linecode.LCode_96 nphases=1 rmatrix=[0.599836] xmatrix=[1.262804] units=km
new line.line_96 bus1=bus_46.2 bus2=bus_68.2 linecode=LCode_96 length=1.0 units=km
new linecode.LCode_97 nphases=2 rmatrix=[0.237183 | 0.059160 0.237183] xmatrix=[1.340875 | 0.940589 1.340875] units=km
new line.line_97 bus1=bus_48.1.3 bus2=bus_68.1.3 linecode=LCode_97 length=1.0 units=km
new linecode.LCode_98 nphases=2 rmatrix=[0.865397 | 0.059160 0.865397] xmatrix=[1.242115 | 1.024695 1.242115] units=km
new line.line_98 bus1=bus_68.2.3 bus2=bus_69.2.3 linecode=LCode_98 length=1.0 units=km
new linecode.LCode_99 nphases=2 rmatrix=[0.155744 | 0.059160 0.155744] xmatrix=[1.375211 | 1.024695 1.375211] units=km
new line.line_99 bus1=bus_23.2.3 bus2=bus_69.2.3 linecode=LCode_99 length=1.0 units=km
new linecode.LCode_100 nphases=2 rmatrix=[0.902618 | 0.059160 0.902618] xmatrix=[1.337462 | 1.024695 1.337462] units=km
new line.line_100 bus1=bus_69.2.3 bus2=bus_70.2.3 linecode=LCode_100 length=1.0 units=km
new linecode.LCode_101 nphases=2 rmatrix=[1.292492 | 0.059160 1.292492] xmatrix=[1.273453 | 1.024695 1.273453] units=km
new line.line_101 bus1=bus_23.2.3 bus2=bus_71.2.3 linecode=LCode_101 length=1.0 units=km
new linecode.LCode_102 nphases=2 rmatrix=[0.829283 | 0.059160 0.829283] xmatrix=[1.274062 | 1.024695 1.274062] units=km
new line.line_102 bus1=bus_70.2.3 bus2=bus_71.2.3 linecode=LCode_102 length=1.0 units=km
new linecode.LCode_103 nphases=1 rmatrix=[1.025019] xmatrix=[1.296722] units=km
new line.line_103 bus1=bus_70.3 bus2=bus_72.3 linecode=LCode_103 length=1.0 units=km
new linecode.LCode_104 nphases=2 rmatrix=[0.358747 | 0.059160 0.358747] xmatrix=[1.242115 | 1.024695 1.242115] units=km
new line.line_104 bus1=bus_69.2.3 bus2=bus_73.2.3 linecode=LCode_104 length=1.0 units=km
new linecode.LCode_105 nphases=1 rmatrix=[0.468101] xmatrix=[1.242115] units=km
new line.line_105 bus1=bus_69.2 bus2=bus_74.2 linecode=LCode_105 length=1.0 units=km
new linecode.LCode_106 nphases=2 rmatrix=[0.632722 | 0.059160 0.632722] xmatrix=[1.242115 | 1.024695 1.242115] units=km
new line.line_106 bus1=bus_68.1.2 bus2=bus_74.1.2 linecode=LCode_106 length=1.0 units=km
new linecode.LCode_107 nphases=1 rmatrix=[0.940525] xmatrix=[1.242115] units=km
new line.line_107 bus1=bus_73.2 bus2=bus_74.2 linecode=LCode_107 length=1.0 units=km
new linecode.LCode_108 nphases=2 rmatrix=[0.269967 | 0.059160 0.269967] xmatrix=[1.331880 | 1.024695 1.331880] units=km
new line.line_108 bus1=bus_75.2.3 bus2=bus_76.2.3 linecode=LCode_108 length=1.0 units=km
new linecode.LCode_109 nphases=2 rmatrix=[0.582089 | 0.059160 0.582089] xmatrix=[1.250333 | 1.024695 1.250333] units=km
new line.line_109 bus1=bus_68.2.3 bus2=bus_76.2.3 linecode=LCode_109 length=1.0 units=km
new linecode.LCode_110 nphases=1 rmatrix=[0.776221] xmatrix=[1.656327] units=km
new line.line_110 bus1=bus_74.2 bus2=bus_76.2 linecode=LCode_110 length=1.0 units=km
new linecode.LCode_111 nphases=2 rmatrix=[0.229198 | 0.059160 0.229198] xmatrix=[1.242115 | 1.024695 1.242115] units=km
new line.line_111 bus1=bus_76.2.3 bus2=bus_77.2.3 linecode=LCode_111 length=1.0 units=km
new linecode.LCode_112 nphases=2 rmatrix=[0.573381 | 0.059160 0.573381] xmatrix=[1.383245 | 1.024695 1.383245] units=km
new line.line_112 bus1=bus_77.2.3 bus2=bus_78.2.3 linecode=LCode_112 length=1.0 units=km
new linecode.LCode_113 nphases=2 rmatrix=[0.643001 | 0.059160 0.643001] xmatrix=[1.453105 | 1.024695 1.453105] units=km
new line.line_113 bus1=bus_76.2.3 bus2=bus_79.2.3 linecode=LCode_113 length=1.0 units=km
new linecode.LCode_114 nphases=2 rmatrix=[1.030537 | 0.059160 1.030537] xmatrix=[1.242115 | 1.024695 1.242115] units=km
new line.line_114 bus1=bus_76.2.3 bus2=bus_79.2.3 linecode=LCode_114 length=1.0 units=km
new linecode.LCode_115 nphases=2 rmatrix=[0.535606 | 0.059160 0.535606] xmatrix=[1.351929 | 1.024695 1.351929] units=km
new line.line_115 bus1=bus_78.2.3 bus2=bus_79.2.3 linecode=LCode_115 length=1.0 units=km
new linecode.LCode_116 nphases=2 rmatrix=[0.272437 | 0.059160 0.272437] xmatrix=[1.269578 | 1.024695 1.269578] units=km
new line.line_116 bus1=bus_76.2.3 bus2=bus_81.2.3 linecode=LCode_116 length=1.0 units=km
new linecode.LCode_118 nphases=1 rmatrix=[0.807697] xmatrix=[1.299282] units=km
new line.line_118 bus1=bus_82.1 bus2=bus_83.1 linecode=LCode_118 length=1.0 units=km
new linecode.LCode_119 nphases=1 rmatrix=[0.647759] xmatrix=[1.242115] units=km
new line.line_119 bus1=bus_82.1 bus2=bus_84.1 linecode=LCode_119 length=1.0 units=km
new linecode.LCode_120 nphases=1 rmatrix=[0.455001] xmatrix=[1.771674] units=km
new line.line_120 bus1=bus_83.1 bus2=bus_84.1 linecode=LCode_120 length=1.0 units=km
new linecode.LCode_121 nphases=1 rmatrix=[0.714282] xmatrix=[1.556023] units=km
new line.line_121 bus1=bus_84.1 bus2=bus_85.1 linecode=LCode_121 length=1.0 units=km
new linecode.LCode_122 nphases=1 rmatrix=[0.566234] xmatrix=[1.257383] units=km
new line.line_122 bus1=bus_84.1 bus2=bus_87.1 linecode=LCode_122 length=1.0 units=km
new linecode.LCode_123 nphases=1 rmatrix=[0.405484] xmatrix=[1.242115] units=km
new line.line_123 bus1=bus_84.1 bus2=bus_88.1 linecode=LCode_123 length=1.0 units=km
new linecode.LCode_124 nphases=1 rmatrix=[0.735621] xmatrix=[1.529205] units=km
new line.line_124 bus1=bus_87.1 bus2=bus_88.1 linecode=LCode_124 length=1.0 units=km
new linecode.LCode_125 nphases=1 rmatrix=[1.058775] xmatrix=[1.456977] units=km
new line.line_125 bus1=bus_88.1 bus2=bus_89.1 linecode=LCode_125 length=1.0 units=km
new linecode.LCode_126 nphases=1 rmatrix=[0.893703] xmatrix=[1.269384] units=km
new line.line_126 bus1=bus_88.1 bus2=bus_89.1 linecode=LCode_126 length=1.0 units=km
new linecode.LCode_130 nphases=1 rmatrix=[0.731377] xmatrix=[1.297272] units=km
new line.line_130 bus1=bus_90.3 bus2=bus_91.3 linecode=LCode_130 length=1.0 units=km
new linecode.LCode_131 nphases=1 rmatrix=[0.708453] xmatrix=[1.373633] units=km
new line.line_131 bus1=bus_91.3 bus2=bus_92.3 linecode=LCode_131 length=1.0 units=km
new linecode.LCode_132 nphases=1 rmatrix=[0.839525] xmatrix=[1.242115] units=km
new line.line_132 bus1=bus_91.3 bus2=bus_93.3 linecode=LCode_132 length=1.0 units=km
new linecode.LCode_133 nphases=1 rmatrix=[0.630861] xmatrix=[1.255658] units=km
new line.line_133 bus1=bus_92.3 bus2=bus_93.3 linecode=LCode_133 length=1.0 units=km
new linecode.LCode_134 nphases=1 rmatrix=[1.149047] xmatrix=[1.464383] units=km
new line.line_134 bus1=bus_93.3 bus2=bus_94.3 linecode=LCode_134 length=1.0 units=km
new linecode.LCode_135 nphases=1 rmatrix=[0.841733] xmatrix=[1.295929] units=km
new line.line_135 bus1=bus_79.3 bus2=bus_95.3 linecode=LCode_135 length=1.0 units=km
new linecode.LCode_136 nphases=1 rmatrix=[0.174180] xmatrix=[1.380382] units=km
new line.line_136 bus1=bus_81.3 bus2=bus_95.3 linecode=LCode_136 length=1.0 units=km
new linecode.LCode_137 nphases=1 rmatrix=[1.552180] xmatrix=[1.242115] units=km
new line.line_137 bus1=bus_93.3 bus2=bus_95.3 linecode=LCode_137 length=1.0 units=km
new linecode.LCode_138 nphases=2 rmatrix=[0.808887 | 0.059160 0.808887] xmatrix=[1.600190 | 1.024695 1.600190] units=km
new line.line_138 bus1=bus_79.2.3 bus2=bus_96.2.3 linecode=LCode_138 length=1.0 units=km
new linecode.LCode_139 nphases=2 rmatrix=[0.956618 | 0.059160 0.956618] xmatrix=[1.242115 | 1.024695 1.242115] units=km
new line.line_139 bus1=bus_79.2.3 bus2=bus_97.2.3 linecode=LCode_139 length=1.0 units=km
new linecode.LCode_140 nphases=2 rmatrix=[0.313455 | 0.059160 0.313455] xmatrix=[1.242115 | 1.024695 1.242115] units=km
new line.line_140 bus1=bus_79.2.3 bus2=bus_98.2.3 linecode=LCode_140 length=1.0 units=km
new linecode.LCode_141 nphases=1 rmatrix=[1.066342] xmatrix=[1.285256] units=km
new line.line_141 bus1=bus_91.3 bus2=bus_99.3 linecode=LCode_141 length=1.0 units=km
new linecode.LCode_142 nphases=1 rmatrix=[0.595512] xmatrix=[1.242115] units=km
new line.line_142 bus1=bus_93.3 bus2=bus_99.3 linecode=LCode_142 length=1.0 units=km
new linecode.LCode_143 nphases=1 rmatrix=[0.456667] xmatrix=[1.251257] units=km
new line.line_143 bus1=bus_94.3 bus2=bus_95.3 linecode=LCode_143 length=1.0 units=km
new linecode.LCode_144 nphases=1 rmatrix=[0.865820] xmatrix=[1.242115] units=km
new line.line_144 bus1=bus_95.3 bus2=bus_96.3 linecode=LCode_144 length=1.0 units=km
new linecode.LCode_145 nphases=2 rmatrix=[0.649461 | 0.059160 0.649461] xmatrix=[1.463320 | 1.024695 1.463320] units=km
new line.line_145 bus1=bus_97.2.3 bus2=bus_99.2.3 linecode=LCode_145 length=1.0 units=km
new linecode.LCode_146 nphases=2 rmatrix=[1.056478 | 0.059160 1.056478] xmatrix=[1.350673 | 1.024695 1.350673] units=km
new line.line_146 bus1=bus_98.2.3 bus2=bus_99.2.3 linecode=LCode_146 length=1.0 units=km
new linecode.LCode_147 nphases=2 rmatrix=[0.556931 | 0.059160 0.556931] xmatrix=[1.300543 | 1.024695 1.300543] units=km
new line.line_147 bus1=bus_99.2.3 bus2=bus_100.2.3 linecode=LCode_147 length=1.0 units=km
new linecode.LCode_148 nphases=1 rmatrix=[0.262871] xmatrix=[1.242115] units=km
new line.line_148 bus1=bus_91.3 bus2=bus_101.3 linecode=LCode_148 length=1.0 units=km
new linecode.LCode_149 nphases=1 rmatrix=[0.737907] xmatrix=[1.436956] units=km
new line.line_149 bus1=bus_100.3 bus2=bus_101.3 linecode=LCode_149 length=1.0 units=km
new linecode.LCode_151 nphases=2 rmatrix=[0.758019 | 0.059160 0.758019] xmatrix=[1.342399 | 1.024695 1.342399] units=km
new line.line_151 bus1=bus_99.2.3 bus2=bus_103.2.3 linecode=LCode_151 length=1.0 units=km
new linecode.LCode_153 nphases=1 rmatrix=[1.258594] xmatrix=[1.469731] units=km
new line.line_153 bus1=bus_102.1 bus2=bus_104.1 linecode=LCode_153 length=1.0 units=km
new linecode.LCode_154 nphases=2 rmatrix=[0.346366 | 0.059160 0.346366] xmatrix=[1.423448 | 1.024695 1.423448] units=km
new line.line_154 bus1=bus_99.2.3 bus2=bus_105.2.3 linecode=LCode_154 length=1.0 units=km
new linecode.LCode_158 nphases=1 rmatrix=[0.867434] xmatrix=[1.405690] units=km
new line.line_158 bus1=bus_104.1 bus2=bus_107.1 linecode=LCode_158 length=1.0 units=km
new linecode.LCode_159 nphases=2 rmatrix=[0.831154 | 0.059160 0.831154] xmatrix=[1.671751 | 1.024695 1.671751] units=km
new line.line_159 bus1=bus_105.2.3 bus2=bus_106.2.3 linecode=LCode_159 length=1.0 units=km
new linecode.LCode_160 nphases=1 rmatrix=[0.373341] xmatrix=[1.333973] units=km
new line.line_160 bus1=bus_107.1 bus2=bus_108.1 linecode=LCode_160 length=1.0 units=km
new linecode.LCode_161 nphases=1 rmatrix=[0.176512] xmatrix=[1.287484] units=km
new line.line_161 bus1=bus_102.1 bus2=bus_109.1 linecode=LCode_161 length=1.0 units=km
new linecode.LCode_162 nphases=1 rmatrix=[1.049909] xmatrix=[1.512520] units=km
new line.line_162 bus1=bus_108.1 bus2=bus_109.1 linecode=LCode_162 length=1.0 units=km
new linecode.LCode_163 nphases=1 rmatrix=[0.761964] xmatrix=[1.274812] units=km
new line.line_163 bus1=bus_109.1 bus2=bus_110.1 linecode=LCode_163 length=1.0 units=km
new linecode.LCode_164 nphases=1 rmatrix=[0.614978] xmatrix=[1.260525] units=km
new line.line_164 bus1=bus_109.1 bus2=bus_111.1 linecode=LCode_164 length=1.0 units=km
new linecode.LCode_166 nphases=2 rmatrix=[0.709891 | 0.059160 0.709891] xmatrix=[1.292893 | 1.024695 1.292893] units=km
new line.line_166 bus1=bus_31.2.3 bus2=bus_112.2.3 linecode=LCode_166 length=1.0 units=km
new linecode.LCode_167 nphases=2 rmatrix=[0.237049 | 0.059160 0.237049] xmatrix=[1.274304 | 1.024695 1.274304] units=km
new line.line_167 bus1=bus_31.2.3 bus2=bus_113.2.3 linecode=LCode_167 length=1.0 units=km
new linecode.LCode_168 nphases=2 rmatrix=[0.654191 | 0.059160 0.654191] xmatrix=[1.294847 | 1.024695 1.294847] units=km
new line.line_168 bus1=bus_26.2.3 bus2=bus_114.2.3 linecode=LCode_168 length=1.0 units=km
new linecode.LCode_169 nphases=2 rmatrix=[0.726110 | 0.059160 0.726110] xmatrix=[1.458311 | 1.024695 1.458311] units=km
new line.line_169 bus1=bus_113.2.3 bus2=bus_114.2.3 linecode=LCode_169 length=1.0 units=km
new linecode.LCode_170 nphases=1 rmatrix=[0.839965] xmatrix=[1.400058] units=km
new line.line_170 bus1=bus_11.1 bus2=bus_116.1 linecode=LCode_170 length=1.0 units=km
new linecode.LCode_171 nphases=2 rmatrix=[0.916541 | 0.059160 0.916541] xmatrix=[1.320382 | 1.024695 1.320382] units=km
new line.line_171 bus1=bus_74.1.2 bus2=bus_117.1.2 linecode=LCode_171 length=1.0 units=km
new linecode.LCode_172 nphases=1 rmatrix=[0.885260] xmatrix=[1.276368] units=km
new line.line_172 bus1=bus_75.2 bus2=bus_117.2 linecode=LCode_172 length=1.0 units=km

!---------------- LOADS ----------------

new load.load_0_A bus1=bus_0.1 Phases=1 kv=157.6864406779661 kw=1556.7239071173733 kvar=510.6054415344985 vminpu=0.85
new load.load_1_A bus1=bus_1.1 Phases=1 kv=157.6864406779661 kw=2337.832319552747 kvar=766.809000813301 vminpu=0.85
new load.load_2_A bus1=bus_2.1 Phases=1 kv=157.6864406779661 kw=1691.8681624994647 kvar=554.9327572998244 vminpu=0.85
new load.load_3_A bus1=bus_3.1 Phases=1 kv=157.6864406779661 kw=2064.0521525990725 kvar=677.0091060524958 vminpu=0.85
new load.load_4_A bus1=bus_4.1 Phases=1 kv=157.6864406779661 kw=1796.7897389291147 kvar=589.3470343687496 vminpu=0.85
new load.load_5_A bus1=bus_5.1 Phases=1 kv=157.6864406779661 kw=2285.809389837738 kvar=749.745479866778 vminpu=0.85
new load.load_6_A bus1=bus_6.1 Phases=1 kv=157.6864406779661 kw=1777.363550923111 kvar=582.9752447027804 vminpu=0.85
new load.load_7_A bus1=bus_7.1 Phases=1 kv=157.6864406779661 kw=1647.290196183055 kvar=540.311184348042 vminpu=0.85
new load.load_8_A bus1=bus_8.1 Phases=1 kv=157.6864406779661 kw=2501.2476330632994 kvar=820.4092236447623 vminpu=0.85
new load.load_9_A bus1=bus_9.1 Phases=1 kv=157.6864406779661 kw=1983.9365961880785 kvar=650.7312035496898 vminpu=0.85
new load.load_10_A bus1=bus_10.1 Phases=1 kv=157.6864406779661 kw=2475.5317736231814 kvar=811.9744217484035 vminpu=0.85
new load.load_11_A bus1=bus_11.1 Phases=1 kv=157.6864406779661 kw=2019.6133271686697 kvar=662.4331713113237 vminpu=0.85
new load.load_12_C bus1=bus_12.3 Phases=1 kv=157.6864406779661 kw=2096.809497411234 kvar=687.7535151508848 vminpu=0.85
new load.load_13_C bus1=bus_13.3 Phases=1 kv=157.6864406779661 kw=2432.551362283596 kvar=797.8768468290195 vminpu=0.85
new load.load_14_C bus1=bus_14.3 Phases=1 kv=157.6864406779661 kw=1657.2392914550487 kvar=543.574487597256 vminpu=0.85
new load.load_15_A bus1=bus_15.1 Phases=1 kv=157.6864406779661 kw=2649.8299076854432 kvar=869.1442097208254 vminpu=0.85
new load.load_16_A bus1=bus_16.1 Phases=1 kv=157.6864406779661 kw=1560.2171257126058 kvar=511.75121723373474 vminpu=0.85
new load.load_17_A bus1=bus_17.1 Phases=1 kv=157.6864406779661 kw=1501.9616201352878 kvar=492.64341140437443 vminpu=0.85
new load.load_18_C bus1=bus_18.3 Phases=1 kv=157.6864406779661 kw=1668.5918916671203 kvar=547.2981404668155 vminpu=0.85
new load.load_19_B bus1=bus_19.2 Phases=1 kv=157.6864406779661 kw=20.25888436306056 kvar=6.644914071083864 vminpu=0.85
new load.load_19_C bus1=bus_19.3 Phases=1 kv=157.6864406779661 kw=1348.0847936909538 kvar=442.17181233063286 vminpu=0.85
new load.load_20_B bus1=bus_20.2 Phases=1 kv=157.6864406779661 kw=2504.601845319701 kvar=821.509405264862 vminpu=0.85
new load.load_20_C bus1=bus_20.3 Phases=1 kv=157.6864406779661 kw=246.43225341800056 kvar=80.82977912110418 vminpu=0.85
new load.load_21_B bus1=bus_21.2 Phases=1 kv=157.6864406779661 kw=2021.8050436848769 kvar=663.1520543286397 vminpu=0.85